Geom Title=simle_2D_geometry_other
Program Version=6.31
Viewing Rectangle= 653165.699309711 , 653638.480756238 , 1797499.10666428 , 1797112.56989969 

Storage Area=Storage area 1  ,,
Storage Area Surface Line= 8 
653265.0307652851797394.05206643                
653195.4119811521797429.41744181                
653262.7513823221797449.07337635                
653330.7901318751797409.28899284                
653396.549498465 1797336.3121348                
653255.4074433451797258.52361578                
653181.6286418051797316.26354742                
653265.0307652851797394.05206643                
Storage Area Type= 1 
Storage Area Area=
Storage Area Min Elev=
Storage Area Is2D=0
Storage Area Point Generation Data=0,0,,
Storage Area 2D Points= 0 
Storage Area 2D PointsPerimeterTime=22Jan2023 00:34:54
Storage Area Mannings=0.06
2D Cell Volume Filter Tolerance=0.003
2D Cell Minimum Area Fraction=0.01
2D Face Profile Filter Tolerance=0.003
2D Face Area Elevation Profile Filter Tolerance=0.003
2D Face Area Elevation Conveyance Ratio=0.02
2D Face Area Laminar Depth=0.06
2D Multiple Face Mann n=0

Storage Area=Perimeter 1     ,,
Storage Area Surface Line= 5 
653202.5340635541797130.66817971                
653202.1768120331797219.94512185                
653306.9718390221797219.72312258                
653307.0219426121797130.48548468                
653202.5340635541797130.66817971                
Storage Area Type= 1 
Storage Area Area=
Storage Area Min Elev=
Storage Area Is2D=-1
Storage Area Point Generation Data=,,4,4
Storage Area 2D Points= 546 
653204.1768120331797217.94512185653208.1768120331797217.94512185
653212.1768120331797217.94512185653216.1768120331797217.94512185
653220.1768120331797217.94512185653224.1768120331797217.94512185
653228.1768120331797217.94512185653232.1768120331797217.94512185
653236.1768120331797217.94512185653240.1768120331797217.94512185
653244.1768120331797217.94512185653248.1768120331797217.94512185
653252.1768120331797217.94512185653256.1768120331797217.94512185
653260.1768120331797217.94512185653264.1768120331797217.94512185
653268.1768120331797217.94512185653272.1768120331797217.94512185
653276.1768120331797217.94512185653280.1768120331797217.94512185
653284.1768120331797217.94512185653288.1768120331797217.94512185
653292.1768120331797217.94512185653296.1768120331797217.94512185
653300.1768120331797217.94512185653304.1768120331797217.94512185
653204.1768120331797213.94512185653208.1768120331797213.94512185
653212.1768120331797213.94512185653216.1768120331797213.94512185
653220.1768120331797213.94512185653224.1768120331797213.94512185
653228.1768120331797213.94512185653232.1768120331797213.94512185
653236.1768120331797213.94512185653240.1768120331797213.94512185
653244.1768120331797213.94512185653248.1768120331797213.94512185
653252.1768120331797213.94512185653256.1768120331797213.94512185
653260.1768120331797213.94512185653264.1768120331797213.94512185
653268.1768120331797213.94512185653272.1768120331797213.94512185
653276.1768120331797213.94512185653280.1768120331797213.94512185
653284.1768120331797213.94512185653288.1768120331797213.94512185
653292.1768120331797213.94512185653296.1768120331797213.94512185
653300.1768120331797213.94512185653304.1768120331797213.94512185
653204.1768120331797209.94512185653208.1768120331797209.94512185
653212.1768120331797209.94512185653216.1768120331797209.94512185
653220.1768120331797209.94512185653224.1768120331797209.94512185
653228.1768120331797209.94512185653232.1768120331797209.94512185
653236.1768120331797209.94512185653240.1768120331797209.94512185
653244.1768120331797209.94512185653248.1768120331797209.94512185
653252.1768120331797209.94512185653256.1768120331797209.94512185
653260.1768120331797209.94512185653264.1768120331797209.94512185
653268.1768120331797209.94512185653272.1768120331797209.94512185
653276.1768120331797209.94512185653280.1768120331797209.94512185
653284.1768120331797209.94512185653288.1768120331797209.94512185
653292.1768120331797209.94512185653296.1768120331797209.94512185
653300.1768120331797209.94512185653304.1768120331797209.94512185
653204.1768120331797205.94512185653208.1768120331797205.94512185
653212.1768120331797205.94512185653216.1768120331797205.94512185
653220.1768120331797205.94512185653224.1768120331797205.94512185
653228.1768120331797205.94512185653232.1768120331797205.94512185
653236.1768120331797205.94512185653240.1768120331797205.94512185
653244.1768120331797205.94512185653248.1768120331797205.94512185
653252.1768120331797205.94512185653256.1768120331797205.94512185
653260.1768120331797205.94512185653264.1768120331797205.94512185
653268.1768120331797205.94512185653272.1768120331797205.94512185
653276.1768120331797205.94512185653280.1768120331797205.94512185
653284.1768120331797205.94512185653288.1768120331797205.94512185
653292.1768120331797205.94512185653296.1768120331797205.94512185
653300.1768120331797205.94512185653304.1768120331797205.94512185
653204.1768120331797193.94512185653208.1768120331797193.94512185
653212.1768120331797193.94512185653216.1768120331797193.94512185
653220.1768120331797193.94512185653224.1768120331797193.94512185
653228.1768120331797193.94512185653232.1768120331797193.94512185
653236.1768120331797193.94512185653240.1768120331797193.94512185
653244.1768120331797193.94512185653248.1768120331797193.94512185
653252.1768120331797193.94512185653256.1768120331797193.94512185
653260.1768120331797193.94512185653264.1768120331797193.94512185
653268.1768120331797193.94512185653272.1768120331797193.94512185
653276.1768120331797193.94512185653280.1768120331797193.94512185
653284.1768120331797193.94512185653288.1768120331797193.94512185
653292.1768120331797193.94512185653296.1768120331797193.94512185
653300.1768120331797193.94512185653304.1768120331797193.94512185
653204.1768120331797189.94512185653208.1768120331797189.94512185
653212.1768120331797189.94512185653216.1768120331797189.94512185
653220.1768120331797189.94512185653224.1768120331797189.94512185
653228.1768120331797189.94512185653232.1768120331797189.94512185
653236.1768120331797189.94512185653240.1768120331797189.94512185
653244.1768120331797189.94512185653248.1768120331797189.94512185
653252.1768120331797189.94512185653256.1768120331797189.94512185
653260.1768120331797189.94512185653264.1768120331797189.94512185
653268.1768120331797189.94512185653272.1768120331797189.94512185
653276.1768120331797189.94512185653280.1768120331797189.94512185
653284.1768120331797189.94512185653288.1768120331797189.94512185
653292.1768120331797189.94512185653296.1768120331797189.94512185
653300.1768120331797189.94512185653304.1768120331797189.94512185
653204.1768120331797185.94512185653208.1768120331797185.94512185
653212.1768120331797185.94512185653216.1768120331797185.94512185
653220.1768120331797185.94512185653224.1768120331797185.94512185
653228.1768120331797185.94512185653232.1768120331797185.94512185
653236.1768120331797185.94512185653240.1768120331797185.94512185
653244.1768120331797185.94512185653248.1768120331797185.94512185
653252.1768120331797185.94512185653256.1768120331797185.94512185
653260.1768120331797185.94512185653264.1768120331797185.94512185
653268.1768120331797185.94512185653272.1768120331797185.94512185
653276.1768120331797185.94512185653280.1768120331797185.94512185
653284.1768120331797185.94512185653288.1768120331797185.94512185
653292.1768120331797185.94512185653296.1768120331797185.94512185
653300.1768120331797185.94512185653304.1768120331797185.94512185
653204.1768120331797181.94512185653208.1768120331797181.94512185
653212.1768120331797181.94512185653216.1768120331797181.94512185
653220.1768120331797181.94512185653224.1768120331797181.94512185
653228.1768120331797181.94512185653232.1768120331797181.94512185
653236.1768120331797181.94512185653240.1768120331797181.94512185
653244.1768120331797181.94512185653248.1768120331797181.94512185
653252.1768120331797181.94512185653256.1768120331797181.94512185
653260.1768120331797181.94512185653264.1768120331797181.94512185
653268.1768120331797181.94512185653272.1768120331797181.94512185
653276.1768120331797181.94512185653280.1768120331797181.94512185
653284.1768120331797181.94512185653288.1768120331797181.94512185
653292.1768120331797181.94512185653296.1768120331797181.94512185
653300.1768120331797181.94512185653304.1768120331797181.94512185
653204.1768120331797177.94512185653208.1768120331797177.94512185
653212.1768120331797177.94512185653216.1768120331797177.94512185
653220.1768120331797177.94512185653224.1768120331797177.94512185
653228.1768120331797177.94512185653232.1768120331797177.94512185
653236.1768120331797177.94512185653240.1768120331797177.94512185
653244.1768120331797177.94512185653248.1768120331797177.94512185
653252.1768120331797177.94512185653256.1768120331797177.94512185
653260.1768120331797177.94512185653264.1768120331797177.94512185
653268.1768120331797177.94512185653272.1768120331797177.94512185
653276.1768120331797177.94512185653280.1768120331797177.94512185
653284.1768120331797177.94512185653288.1768120331797177.94512185
653292.1768120331797177.94512185653296.1768120331797177.94512185
653300.1768120331797177.94512185653304.1768120331797177.94512185
653204.1768120331797173.94512185653208.1768120331797173.94512185
653212.1768120331797173.94512185653216.1768120331797173.94512185
653220.1768120331797173.94512185653224.1768120331797173.94512185
653228.1768120331797173.94512185653232.1768120331797173.94512185
653236.1768120331797173.94512185653240.1768120331797173.94512185
653244.1768120331797173.94512185653248.1768120331797173.94512185
653252.1768120331797173.94512185653256.1768120331797173.94512185
653260.1768120331797173.94512185653264.1768120331797173.94512185
653268.1768120331797173.94512185653272.1768120331797173.94512185
653276.1768120331797173.94512185653280.1768120331797173.94512185
653284.1768120331797173.94512185653288.1768120331797173.94512185
653292.1768120331797173.94512185653296.1768120331797173.94512185
653300.1768120331797173.94512185653304.1768120331797173.94512185
653204.1768120331797169.94512185653208.1768120331797169.94512185
653212.1768120331797169.94512185653216.1768120331797169.94512185
653220.1768120331797169.94512185653224.1768120331797169.94512185
653228.1768120331797169.94512185653232.1768120331797169.94512185
653236.1768120331797169.94512185653240.1768120331797169.94512185
653244.1768120331797169.94512185653248.1768120331797169.94512185
653252.1768120331797169.94512185653256.1768120331797169.94512185
653260.1768120331797169.94512185653264.1768120331797169.94512185
653268.1768120331797169.94512185653272.1768120331797169.94512185
653276.1768120331797169.94512185653280.1768120331797169.94512185
653284.1768120331797169.94512185653288.1768120331797169.94512185
653292.1768120331797169.94512185653296.1768120331797169.94512185
653300.1768120331797169.94512185653304.1768120331797169.94512185
653204.1768120331797165.94512185653208.1768120331797165.94512185
653212.1768120331797165.94512185653216.1768120331797165.94512185
653220.1768120331797165.94512185653224.1768120331797165.94512185
653228.1768120331797165.94512185653232.1768120331797165.94512185
653236.1768120331797165.94512185653240.1768120331797165.94512185
653244.1768120331797165.94512185653248.1768120331797165.94512185
653252.1768120331797165.94512185653256.1768120331797165.94512185
653260.1768120331797165.94512185653264.1768120331797165.94512185
653268.1768120331797165.94512185653272.1768120331797165.94512185
653276.1768120331797165.94512185653280.1768120331797165.94512185
653284.1768120331797165.94512185653288.1768120331797165.94512185
653292.1768120331797165.94512185653296.1768120331797165.94512185
653300.1768120331797165.94512185653304.1768120331797165.94512185
653204.1768120331797161.94512185653208.1768120331797161.94512185
653212.1768120331797161.94512185653216.1768120331797161.94512185
653220.1768120331797161.94512185653224.1768120331797161.94512185
653228.1768120331797161.94512185653232.1768120331797161.94512185
653236.1768120331797161.94512185653240.1768120331797161.94512185
653244.1768120331797161.94512185653248.1768120331797161.94512185
653252.1768120331797161.94512185653256.1768120331797161.94512185
653260.1768120331797161.94512185653264.1768120331797161.94512185
653268.1768120331797161.94512185653272.1768120331797161.94512185
653276.1768120331797161.94512185653280.1768120331797161.94512185
653284.1768120331797161.94512185653288.1768120331797161.94512185
653292.1768120331797161.94512185653296.1768120331797161.94512185
653300.1768120331797161.94512185653304.1768120331797161.94512185
653204.1768120331797157.94512185653208.1768120331797157.94512185
653212.1768120331797157.94512185653216.1768120331797157.94512185
653220.1768120331797157.94512185653224.1768120331797157.94512185
653228.1768120331797157.94512185653232.1768120331797157.94512185
653236.1768120331797157.94512185653240.1768120331797157.94512185
653244.1768120331797157.94512185653248.1768120331797157.94512185
653252.1768120331797157.94512185653256.1768120331797157.94512185
653260.1768120331797157.94512185653264.1768120331797157.94512185
653268.1768120331797157.94512185653272.1768120331797157.94512185
653276.1768120331797157.94512185653280.1768120331797157.94512185
653284.1768120331797157.94512185653288.1768120331797157.94512185
653292.1768120331797157.94512185653296.1768120331797157.94512185
653300.1768120331797157.94512185653304.1768120331797157.94512185
653204.1768120331797141.94512185653208.1768120331797141.94512185
653212.1768120331797141.94512185653216.1768120331797141.94512185
653220.1768120331797141.94512185653224.1768120331797141.94512185
653228.1768120331797141.94512185653232.1768120331797141.94512185
653236.1768120331797141.94512185653240.1768120331797141.94512185
653244.1768120331797141.94512185653248.1768120331797141.94512185
653252.1768120331797141.94512185653256.1768120331797141.94512185
653260.1768120331797141.94512185653264.1768120331797141.94512185
653268.1768120331797141.94512185653272.1768120331797141.94512185
653276.1768120331797141.94512185653280.1768120331797141.94512185
653284.1768120331797141.94512185653288.1768120331797141.94512185
653292.1768120331797141.94512185653296.1768120331797141.94512185
653300.1768120331797141.94512185653304.1768120331797141.94512185
653204.1768120331797137.94512185653208.1768120331797137.94512185
653212.1768120331797137.94512185653216.1768120331797137.94512185
653220.1768120331797137.94512185653224.1768120331797137.94512185
653228.1768120331797137.94512185653232.1768120331797137.94512185
653236.1768120331797137.94512185653240.1768120331797137.94512185
653244.1768120331797137.94512185653248.1768120331797137.94512185
653252.1768120331797137.94512185653256.1768120331797137.94512185
653260.1768120331797137.94512185653264.1768120331797137.94512185
653268.1768120331797137.94512185653272.1768120331797137.94512185
653276.1768120331797137.94512185653280.1768120331797137.94512185
653284.1768120331797137.94512185653288.1768120331797137.94512185
653292.1768120331797137.94512185653296.1768120331797137.94512185
653300.1768120331797137.94512185653304.1768120331797137.94512185
653204.1768120331797133.94512185653208.1768120331797133.94512185
653212.1768120331797133.94512185653216.1768120331797133.94512185
653220.1768120331797133.94512185653224.1768120331797133.94512185
653228.1768120331797133.94512185653232.1768120331797133.94512185
653236.1768120331797133.94512185653240.1768120331797133.94512185
653244.1768120331797133.94512185653248.1768120331797133.94512185
653252.1768120331797133.94512185653256.1768120331797133.94512185
653260.1768120331797133.94512185653264.1768120331797133.94512185
653268.1768120331797133.94512185653272.1768120331797133.94512185
653276.1768120331797133.94512185653280.1768120331797133.94512185
653284.1768120331797133.94512185653288.1768120331797133.94512185
653292.1768120331797133.94512185653296.1768120331797133.94512185
653300.1768120331797133.94512185653304.1768120331797133.94512185
653304.6710274161797147.87376483653300.7131166831797147.87215977
 653296.75520595 1797147.8705547653292.7972952161797147.86894964
653288.8393844831797147.86734458 653284.881473751797147.86573951
653280.9235630171797147.86413445653276.9656522831797147.86252939
 653273.007741551797147.86092432653269.0498308171797147.85931926
653265.091920084 1797147.8577142 653261.134009351797147.85610913
653257.1760986171797147.85450407653253.218187884  1797147.852899
653249.2602771511797147.85129394653245.3023664171797147.84968888
653241.3444556841797147.84808381653237.3865449511797147.84647875
653233.4286342181797147.84487369653229.4707234841797147.84326862
653225.5128127511797147.84166356653221.5549020181797147.84005849
653217.5969912851797147.83845343653213.6390805511797147.83684837
653209.681169818 1797147.8352433653205.7232590851797147.83363824
653304.669405284 1797151.8737645653300.7114945511797151.87215944
653296.7535838181797151.87055438653292.7956730841797151.86894931
653288.8377623511797151.86734425653284.8798516181797151.86573918
653280.9219408851797151.86413412653276.9640301511797151.86252906
653273.0061194181797151.86092399653269.0482086851797151.85931893
653265.0902979521797151.85771387653261.132387218 1797151.8561088
653257.1744764851797151.85450374653253.2165657521797151.85289868
653249.2586550191797151.85129361653245.3007442851797151.84968855
653241.3428335521797151.84808348653237.3849228191797151.84647842
653233.4270120861797151.84487336653229.4691013521797151.84326829
653225.5111906191797151.84166323653221.5532798861797151.84005817
653217.595369153 1797151.8384531653213.6374584191797151.83684804
653209.6795476861797151.83524297653205.7216369531797151.83363791
653205.8095945571797202.01099826653209.7584957331797202.01080405
653213.7073969091797202.01060985653217.6562980851797202.01041564
653221.6051992611797202.01022144653225.5541004371797202.01002723
653229.5030016131797202.00983303653233.4519027891797202.00963882
653237.4008039651797202.00944462653241.3497051411797202.00925041
653245.298606317 1797202.0090562653249.247507493  1797202.008862
653253.1964086691797202.00866779653257.1453098451797202.00847359
653261.0942110211797202.00827938653265.0431121971797202.00808518
653268.9920133731797202.00789097653272.9409145491797202.00769677
653276.8898157251797202.00750256653280.8387169011797202.00730835
653284.7876180771797202.00711415653288.7365192531797202.00691994
653292.6854204291797202.00672574653296.6343216051797202.00653153
 653300.583222781797202.00633733653304.5321239561797202.00614312
653205.8093978391797198.01099826653209.7582990151797198.01080406
653213.7072001911797198.01060985653217.6561013671797198.01041565
653221.6050025431797198.01022144653225.5539037181797198.01002724
653229.5028048951797198.00983303653233.4517060711797198.00963883
653237.4006072461797198.00944462653241.3495084231797198.00925041
653245.2984095981797198.00905621653249.247310775  1797198.008862
 653253.19621195 1797198.0086678653257.1451131261797198.00847359
653261.0940143021797198.00827939653265.0429154781797198.00808518
653268.9918166541797198.00789098 653272.940717831797198.00769677
653276.8896190061797198.00750256653280.8385201821797198.00730836
653284.7874213581797198.00711415653288.7363225341797198.00691995
 653292.685223711797198.00672574653296.6341248861797198.00653154
653300.5830260621797198.00633733653304.5319272381797198.00614313
Storage Area 2D PointsPerimeterTime=22Jan2023 00:34:54
Storage Area Mannings=0.06
2D Cell Volume Filter Tolerance=0.003
2D Cell Minimum Area Fraction=0.01
2D Face Profile Filter Tolerance=0.003
2D Face Area Elevation Profile Filter Tolerance=0.003
2D Face Area Elevation Conveyance Ratio=0.02
2D Face Area Laminar Depth=0.06
2D Multiple Face Mann n=0

Storage Area=Perimeter 2     ,,
Storage Area Surface Line= 5 
653490.2275150791797213.58963957                
653490.2275150791797137.18285738                
653382.3591166941797137.52858943                
653382.3591166941797212.89817548                
653490.2275150791797213.58963957                
Storage Area Type= 1 
Storage Area Area=
Storage Area Min Elev=
Storage Area Is2D=-1
Storage Area Point Generation Data=,,4,4
Storage Area 2D Points= 486 
653384.3591166941797211.58963957653388.3591166941797211.58963957
653392.3591166941797211.58963957653396.3591166941797211.58963957
653400.3591166941797211.58963957653404.3591166941797211.58963957
653408.3591166941797211.58963957653412.3591166941797211.58963957
653416.3591166941797211.58963957653420.3591166941797211.58963957
653424.3591166941797211.58963957653428.3591166941797211.58963957
653432.3591166941797211.58963957653436.3591166941797211.58963957
653440.3591166941797211.58963957653444.3591166941797211.58963957
653448.3591166941797211.58963957653452.3591166941797211.58963957
653456.3591166941797211.58963957653460.3591166941797211.58963957
653464.3591166941797211.58963957653468.3591166941797211.58963957
653472.3591166941797211.58963957653476.3591166941797211.58963957
653480.3591166941797211.58963957653484.3591166941797211.58963957
653488.3591166941797211.58963957653384.3591166941797207.58963957
653388.3591166941797207.58963957653392.3591166941797207.58963957
653396.3591166941797207.58963957653400.3591166941797207.58963957
653404.3591166941797207.58963957653408.3591166941797207.58963957
653412.3591166941797207.58963957653416.3591166941797207.58963957
653420.3591166941797207.58963957653424.3591166941797207.58963957
653428.3591166941797207.58963957653432.3591166941797207.58963957
653436.3591166941797207.58963957653440.3591166941797207.58963957
653444.3591166941797207.58963957653448.3591166941797207.58963957
653452.3591166941797207.58963957653456.3591166941797207.58963957
653460.3591166941797207.58963957653464.3591166941797207.58963957
653468.3591166941797207.58963957653472.3591166941797207.58963957
653476.3591166941797207.58963957653480.3591166941797207.58963957
653484.3591166941797207.58963957653488.3591166941797207.58963957
653384.3591166941797191.58963957653388.3591166941797191.58963957
653392.3591166941797191.58963957653396.3591166941797191.58963957
653400.3591166941797191.58963957653404.3591166941797191.58963957
653408.3591166941797191.58963957653412.3591166941797191.58963957
653416.3591166941797191.58963957653420.3591166941797191.58963957
653424.3591166941797191.58963957653428.3591166941797191.58963957
653432.3591166941797191.58963957653436.3591166941797191.58963957
653440.3591166941797191.58963957653444.3591166941797191.58963957
653448.3591166941797191.58963957653452.3591166941797191.58963957
653456.3591166941797191.58963957653460.3591166941797191.58963957
653464.3591166941797191.58963957653468.3591166941797191.58963957
653472.3591166941797191.58963957653476.3591166941797191.58963957
653480.3591166941797191.58963957653484.3591166941797191.58963957
653488.3591166941797191.58963957653384.3591166941797187.58963957
653388.3591166941797187.58963957653392.3591166941797187.58963957
653396.3591166941797187.58963957653400.3591166941797187.58963957
653404.3591166941797187.58963957653408.3591166941797187.58963957
653412.3591166941797187.58963957653416.3591166941797187.58963957
653420.3591166941797187.58963957653424.3591166941797187.58963957
653428.3591166941797187.58963957653432.3591166941797187.58963957
653436.3591166941797187.58963957653440.3591166941797187.58963957
653444.3591166941797187.58963957653448.3591166941797187.58963957
653452.3591166941797187.58963957653456.3591166941797187.58963957
653460.3591166941797187.58963957653464.3591166941797187.58963957
653468.3591166941797187.58963957653472.3591166941797187.58963957
653476.3591166941797187.58963957653480.3591166941797187.58963957
653484.3591166941797187.58963957653488.3591166941797187.58963957
653384.3591166941797183.58963957653388.3591166941797183.58963957
653392.3591166941797183.58963957653396.3591166941797183.58963957
653400.3591166941797183.58963957653404.3591166941797183.58963957
653408.3591166941797183.58963957653412.3591166941797183.58963957
653416.3591166941797183.58963957653420.3591166941797183.58963957
653424.3591166941797183.58963957653428.3591166941797183.58963957
653432.3591166941797183.58963957653436.3591166941797183.58963957
653440.3591166941797183.58963957653444.3591166941797183.58963957
653448.3591166941797183.58963957653452.3591166941797183.58963957
653456.3591166941797183.58963957653460.3591166941797183.58963957
653464.3591166941797183.58963957653468.3591166941797183.58963957
653472.3591166941797183.58963957653476.3591166941797183.58963957
653480.3591166941797183.58963957653484.3591166941797183.58963957
653488.3591166941797183.58963957653384.3591166941797179.58963957
653388.3591166941797179.58963957653392.3591166941797179.58963957
653396.3591166941797179.58963957653400.3591166941797179.58963957
653404.3591166941797179.58963957653408.3591166941797179.58963957
653412.3591166941797179.58963957653416.3591166941797179.58963957
653420.3591166941797179.58963957653424.3591166941797179.58963957
653428.3591166941797179.58963957653432.3591166941797179.58963957
653436.3591166941797179.58963957653440.3591166941797179.58963957
653444.3591166941797179.58963957653448.3591166941797179.58963957
653452.3591166941797179.58963957653456.3591166941797179.58963957
653460.3591166941797179.58963957653464.3591166941797179.58963957
653468.3591166941797179.58963957653472.3591166941797179.58963957
653476.3591166941797179.58963957653480.3591166941797179.58963957
653484.3591166941797179.58963957653488.3591166941797179.58963957
653384.3591166941797175.58963957653388.3591166941797175.58963957
653392.3591166941797175.58963957653396.3591166941797175.58963957
653400.3591166941797175.58963957653404.3591166941797175.58963957
653408.3591166941797175.58963957653412.3591166941797175.58963957
653416.3591166941797175.58963957653420.3591166941797175.58963957
653424.3591166941797175.58963957653428.3591166941797175.58963957
653432.3591166941797175.58963957653436.3591166941797175.58963957
653440.3591166941797175.58963957653444.3591166941797175.58963957
653448.3591166941797175.58963957653452.3591166941797175.58963957
653456.3591166941797175.58963957653460.3591166941797175.58963957
653464.3591166941797175.58963957653468.3591166941797175.58963957
653472.3591166941797175.58963957653476.3591166941797175.58963957
653480.3591166941797175.58963957653484.3591166941797175.58963957
653488.3591166941797175.58963957653384.3591166941797171.58963957
653388.3591166941797171.58963957653392.3591166941797171.58963957
653396.3591166941797171.58963957653400.3591166941797171.58963957
653404.3591166941797171.58963957653408.3591166941797171.58963957
653412.3591166941797171.58963957653416.3591166941797171.58963957
653420.3591166941797171.58963957653424.3591166941797171.58963957
653428.3591166941797171.58963957653432.3591166941797171.58963957
653436.3591166941797171.58963957653440.3591166941797171.58963957
653444.3591166941797171.58963957653448.3591166941797171.58963957
653452.3591166941797171.58963957653456.3591166941797171.58963957
653460.3591166941797171.58963957653464.3591166941797171.58963957
653468.3591166941797171.58963957653472.3591166941797171.58963957
653476.3591166941797171.58963957653480.3591166941797171.58963957
653484.3591166941797171.58963957653488.3591166941797171.58963957
653384.3591166941797167.58963957653388.3591166941797167.58963957
653392.3591166941797167.58963957653396.3591166941797167.58963957
653400.3591166941797167.58963957653404.3591166941797167.58963957
653408.3591166941797167.58963957653412.3591166941797167.58963957
653416.3591166941797167.58963957653420.3591166941797167.58963957
653424.3591166941797167.58963957653428.3591166941797167.58963957
653432.3591166941797167.58963957653436.3591166941797167.58963957
653440.3591166941797167.58963957653444.3591166941797167.58963957
653448.3591166941797167.58963957653452.3591166941797167.58963957
653456.3591166941797167.58963957653460.3591166941797167.58963957
653464.3591166941797167.58963957653468.3591166941797167.58963957
653472.3591166941797167.58963957653476.3591166941797167.58963957
653480.3591166941797167.58963957653484.3591166941797167.58963957
653488.3591166941797167.58963957653384.3591166941797163.58963957
653388.3591166941797163.58963957653392.3591166941797163.58963957
653396.3591166941797163.58963957653400.3591166941797163.58963957
653404.3591166941797163.58963957653408.3591166941797163.58963957
653412.3591166941797163.58963957653416.3591166941797163.58963957
653420.3591166941797163.58963957653424.3591166941797163.58963957
653428.3591166941797163.58963957653432.3591166941797163.58963957
653436.3591166941797163.58963957653440.3591166941797163.58963957
653444.3591166941797163.58963957653448.3591166941797163.58963957
653452.3591166941797163.58963957653456.3591166941797163.58963957
653460.3591166941797163.58963957653464.3591166941797163.58963957
653468.3591166941797163.58963957653472.3591166941797163.58963957
653476.3591166941797163.58963957653480.3591166941797163.58963957
653484.3591166941797163.58963957653488.3591166941797163.58963957
653384.3591166941797159.58963957653388.3591166941797159.58963957
653392.3591166941797159.58963957653396.3591166941797159.58963957
653400.3591166941797159.58963957653404.3591166941797159.58963957
653408.3591166941797159.58963957653412.3591166941797159.58963957
653416.3591166941797159.58963957653420.3591166941797159.58963957
653424.3591166941797159.58963957653428.3591166941797159.58963957
653432.3591166941797159.58963957653436.3591166941797159.58963957
653440.3591166941797159.58963957653444.3591166941797159.58963957
653448.3591166941797159.58963957653452.3591166941797159.58963957
653456.3591166941797159.58963957653460.3591166941797159.58963957
653464.3591166941797159.58963957653468.3591166941797159.58963957
653472.3591166941797159.58963957653476.3591166941797159.58963957
653480.3591166941797159.58963957653484.3591166941797159.58963957
653488.3591166941797159.58963957653384.3591166941797155.58963957
653388.3591166941797155.58963957653392.3591166941797155.58963957
653396.3591166941797155.58963957653400.3591166941797155.58963957