Geom Title=simle_2D_geometry_other
Program Version=6.31
Viewing Rectangle= 653165.699309711 , 653638.480756238 , 1797499.10666428 , 1797112.56989969 

Storage Area=Storage area 1  ,,
Storage Area Surface Line= 8 
653265.0307652851797394.05206643                
653195.4119811521797429.41744181                
653262.7513823221797449.07337635                
653330.7901318751797409.28899284                
653396.549498465 1797336.3121348                
653255.4074433451797258.52361578                
653181.6286418051797316.26354742                
653265.0307652851797394.05206643                
Storage Area Type= 1 
Storage Area Area=
Storage Area Min Elev=
Storage Area Is2D=0
Storage Area Point Generation Data=0,0,,
Storage Area 2D Points= 0 
Storage Area 2D PointsPerimeterTime=18Jan2023 13:59:04
Storage Area Mannings=0.06
2D Cell Volume Filter Tolerance=0.003
2D Cell Minimum Area Fraction=0.01
2D Face Profile Filter Tolerance=0.003
2D Face Area Elevation Profile Filter Tolerance=0.003
2D Face Area Elevation Conveyance Ratio=0.02
2D Face Area Laminar Depth=0.06
2D Multiple Face Mann n=0

Storage Area=Perimeter 1     ,,
Storage Area Surface Line= 5 
 653201.102198911797130.38180678                
653200.3422284551797219.94512185                
653306.9718390221797219.72312258                
653307.0219426121797130.48548468                
 653201.102198911797130.38180678                
Storage Area Type= 1 
Storage Area Area=
Storage Area Min Elev=
Storage Area Is2D=-1
Storage Area Point Generation Data=,,4,4
Storage Area 2D Points= 565 
653202.3422284551797217.94512185653206.3422284551797217.94512185
653210.3422284551797217.94512185653214.3422284551797217.94512185
653218.3422284551797217.94512185653222.3422284551797217.94512185
653226.3422284551797217.94512185653230.3422284551797217.94512185
653234.3422284551797217.94512185653238.3422284551797217.94512185
653242.3422284551797217.94512185653246.3422284551797217.94512185
653250.3422284551797217.94512185653254.3422284551797217.94512185
653258.3422284551797217.94512185653262.3422284551797217.94512185
653266.3422284551797217.94512185653270.3422284551797217.94512185
653274.3422284551797217.94512185653278.3422284551797217.94512185
653282.3422284551797217.94512185653286.3422284551797217.94512185
653290.3422284551797217.94512185653294.3422284551797217.94512185
653298.3422284551797217.94512185653302.3422284551797217.94512185
653306.3422284551797217.94512185653202.3422284551797213.94512185
653206.3422284551797213.94512185653210.3422284551797213.94512185
653214.3422284551797213.94512185653218.3422284551797213.94512185
653222.3422284551797213.94512185653226.3422284551797213.94512185
653230.3422284551797213.94512185653234.3422284551797213.94512185
653238.3422284551797213.94512185653242.3422284551797213.94512185
653246.3422284551797213.94512185653250.3422284551797213.94512185
653254.3422284551797213.94512185653258.3422284551797213.94512185
653262.3422284551797213.94512185653266.3422284551797213.94512185
653270.3422284551797213.94512185653274.3422284551797213.94512185
653278.3422284551797213.94512185653282.3422284551797213.94512185
653286.3422284551797213.94512185653290.3422284551797213.94512185
653294.3422284551797213.94512185653298.3422284551797213.94512185
653302.3422284551797213.94512185653306.3422284551797213.94512185
653202.3422284551797209.94512185653206.3422284551797209.94512185
653210.3422284551797209.94512185653214.3422284551797209.94512185
653218.3422284551797209.94512185653222.3422284551797209.94512185
653226.3422284551797209.94512185653230.3422284551797209.94512185
653234.3422284551797209.94512185653238.3422284551797209.94512185
653242.3422284551797209.94512185653246.3422284551797209.94512185
653250.3422284551797209.94512185653254.3422284551797209.94512185
653258.3422284551797209.94512185653262.3422284551797209.94512185
653266.3422284551797209.94512185653270.3422284551797209.94512185
653274.3422284551797209.94512185653278.3422284551797209.94512185
653282.3422284551797209.94512185653286.3422284551797209.94512185
653290.3422284551797209.94512185653294.3422284551797209.94512185
653298.3422284551797209.94512185653302.3422284551797209.94512185
653306.3422284551797209.94512185653202.3422284551797205.94512185
653206.3422284551797205.94512185653210.3422284551797205.94512185
653214.3422284551797205.94512185653218.3422284551797205.94512185
653222.3422284551797205.94512185653226.3422284551797205.94512185
653230.3422284551797205.94512185653234.3422284551797205.94512185
653238.3422284551797205.94512185653242.3422284551797205.94512185
653246.3422284551797205.94512185653250.3422284551797205.94512185
653254.3422284551797205.94512185653258.3422284551797205.94512185
653262.3422284551797205.94512185653266.3422284551797205.94512185
653270.3422284551797205.94512185653274.3422284551797205.94512185
653278.3422284551797205.94512185653282.3422284551797205.94512185
653286.3422284551797205.94512185653290.3422284551797205.94512185
653294.3422284551797205.94512185653298.3422284551797205.94512185
653302.3422284551797205.94512185653306.3422284551797205.94512185
653202.3422284551797193.94512185653206.3422284551797193.94512185
653210.3422284551797193.94512185653214.3422284551797193.94512185
653218.3422284551797193.94512185653222.3422284551797193.94512185
653226.3422284551797193.94512185653230.3422284551797193.94512185
653234.3422284551797193.94512185653238.3422284551797193.94512185
653242.3422284551797193.94512185653246.3422284551797193.94512185
653250.3422284551797193.94512185653254.3422284551797193.94512185
653258.3422284551797193.94512185653262.3422284551797193.94512185
653266.3422284551797193.94512185653270.3422284551797193.94512185
653274.3422284551797193.94512185653278.3422284551797193.94512185
653282.3422284551797193.94512185653286.3422284551797193.94512185
653290.3422284551797193.94512185653294.3422284551797193.94512185
653298.3422284551797193.94512185653302.3422284551797193.94512185
653306.3422284551797193.94512185653202.3422284551797189.94512185
653206.3422284551797189.94512185653210.3422284551797189.94512185
653214.3422284551797189.94512185653218.3422284551797189.94512185
653222.3422284551797189.94512185653226.3422284551797189.94512185
653230.3422284551797189.94512185653234.3422284551797189.94512185
653238.3422284551797189.94512185653242.3422284551797189.94512185
653246.3422284551797189.94512185653250.3422284551797189.94512185
653254.3422284551797189.94512185653258.3422284551797189.94512185
653262.3422284551797189.94512185653266.3422284551797189.94512185
653270.3422284551797189.94512185653274.3422284551797189.94512185
653278.3422284551797189.94512185653282.3422284551797189.94512185
653286.3422284551797189.94512185653290.3422284551797189.94512185
653294.3422284551797189.94512185653298.3422284551797189.94512185
653302.3422284551797189.94512185653306.3422284551797189.94512185
653202.3422284551797185.94512185653206.3422284551797185.94512185
653210.3422284551797185.94512185653214.3422284551797185.94512185
653218.3422284551797185.94512185653222.3422284551797185.94512185
653226.3422284551797185.94512185653230.3422284551797185.94512185
653234.3422284551797185.94512185653238.3422284551797185.94512185
653242.3422284551797185.94512185653246.3422284551797185.94512185
653250.3422284551797185.94512185653254.3422284551797185.94512185
653258.3422284551797185.94512185653262.3422284551797185.94512185
653266.3422284551797185.94512185653270.3422284551797185.94512185
653274.3422284551797185.94512185653278.3422284551797185.94512185
653282.3422284551797185.94512185653286.3422284551797185.94512185
653290.3422284551797185.94512185653294.3422284551797185.94512185
653298.3422284551797185.94512185653302.3422284551797185.94512185
653306.3422284551797185.94512185653202.3422284551797181.94512185
653206.3422284551797181.94512185653210.3422284551797181.94512185
653214.3422284551797181.94512185653218.3422284551797181.94512185
653222.3422284551797181.94512185653226.3422284551797181.94512185
653230.3422284551797181.94512185653234.3422284551797181.94512185
653238.3422284551797181.94512185653242.3422284551797181.94512185
653246.3422284551797181.94512185653250.3422284551797181.94512185
653254.3422284551797181.94512185653258.3422284551797181.94512185
653262.3422284551797181.94512185653266.3422284551797181.94512185
653270.3422284551797181.94512185653274.3422284551797181.94512185
653278.3422284551797181.94512185653282.3422284551797181.94512185
653286.3422284551797181.94512185653290.3422284551797181.94512185
653294.3422284551797181.94512185653298.3422284551797181.94512185
653302.3422284551797181.94512185653306.3422284551797181.94512185
653202.3422284551797177.94512185653206.3422284551797177.94512185
653210.3422284551797177.94512185653214.3422284551797177.94512185
653218.3422284551797177.94512185653222.3422284551797177.94512185
653226.3422284551797177.94512185653230.3422284551797177.94512185
653234.3422284551797177.94512185653238.3422284551797177.94512185
653242.3422284551797177.94512185653246.3422284551797177.94512185
653250.3422284551797177.94512185653254.3422284551797177.94512185
653258.3422284551797177.94512185653262.3422284551797177.94512185
653266.3422284551797177.94512185653270.3422284551797177.94512185
653274.3422284551797177.94512185653278.3422284551797177.94512185
653282.3422284551797177.94512185653286.3422284551797177.94512185
653290.3422284551797177.94512185653294.3422284551797177.94512185
653298.3422284551797177.94512185653302.3422284551797177.94512185
653306.3422284551797177.94512185653202.3422284551797173.94512185
653206.3422284551797173.94512185653210.3422284551797173.94512185
653214.3422284551797173.94512185653218.3422284551797173.94512185
653222.3422284551797173.94512185653226.3422284551797173.94512185
653230.3422284551797173.94512185653234.3422284551797173.94512185
653238.3422284551797173.94512185653242.3422284551797173.94512185
653246.3422284551797173.94512185653250.3422284551797173.94512185
653254.3422284551797173.94512185653258.3422284551797173.94512185
653262.3422284551797173.94512185653266.3422284551797173.94512185
653270.3422284551797173.94512185653274.3422284551797173.94512185
653278.3422284551797173.94512185653282.3422284551797173.94512185
653286.3422284551797173.94512185653290.3422284551797173.94512185
653294.3422284551797173.94512185653298.3422284551797173.94512185
653302.3422284551797173.94512185653306.3422284551797173.94512185
653202.3422284551797169.94512185653206.3422284551797169.94512185
653210.3422284551797169.94512185653214.3422284551797169.94512185
653218.3422284551797169.94512185653222.3422284551797169.94512185
653226.3422284551797169.94512185653230.3422284551797169.94512185
653234.3422284551797169.94512185653238.3422284551797169.94512185
653242.3422284551797169.94512185653246.3422284551797169.94512185
653250.3422284551797169.94512185653254.3422284551797169.94512185
653258.3422284551797169.94512185653262.3422284551797169.94512185
653266.3422284551797169.94512185653270.3422284551797169.94512185
653274.3422284551797169.94512185653278.3422284551797169.94512185
653282.3422284551797169.94512185653286.3422284551797169.94512185
653290.3422284551797169.94512185653294.3422284551797169.94512185
653298.3422284551797169.94512185653302.3422284551797169.94512185
653306.3422284551797169.94512185653202.3422284551797165.94512185
653206.3422284551797165.94512185653210.3422284551797165.94512185
653214.3422284551797165.94512185653218.3422284551797165.94512185
653222.3422284551797165.94512185653226.3422284551797165.94512185
653230.3422284551797165.94512185653234.3422284551797165.94512185
653238.3422284551797165.94512185653242.3422284551797165.94512185
653246.3422284551797165.94512185653250.3422284551797165.94512185
653254.3422284551797165.94512185653258.3422284551797165.94512185
653262.3422284551797165.94512185653266.3422284551797165.94512185
653270.3422284551797165.94512185653274.3422284551797165.94512185
653278.3422284551797165.94512185653282.3422284551797165.94512185
653286.3422284551797165.94512185653290.3422284551797165.94512185
653294.3422284551797165.94512185653298.3422284551797165.94512185
653302.3422284551797165.94512185653306.3422284551797165.94512185
653202.3422284551797161.94512185653206.3422284551797161.94512185
653210.3422284551797161.94512185653214.3422284551797161.94512185
653218.3422284551797161.94512185653222.3422284551797161.94512185
653226.3422284551797161.94512185653230.3422284551797161.94512185
653234.3422284551797161.94512185653238.3422284551797161.94512185
653242.3422284551797161.94512185653246.3422284551797161.94512185
653250.3422284551797161.94512185653254.3422284551797161.94512185
653258.3422284551797161.94512185653262.3422284551797161.94512185
653266.3422284551797161.94512185653270.3422284551797161.94512185
653274.3422284551797161.94512185653278.3422284551797161.94512185
653282.3422284551797161.94512185653286.3422284551797161.94512185
653290.3422284551797161.94512185653294.3422284551797161.94512185
653298.3422284551797161.94512185653302.3422284551797161.94512185
653306.3422284551797161.94512185653202.3422284551797157.94512185
653206.3422284551797157.94512185653210.3422284551797157.94512185
653214.3422284551797157.94512185653218.3422284551797157.94512185
653222.3422284551797157.94512185653226.3422284551797157.94512185
653230.3422284551797157.94512185653234.3422284551797157.94512185
653238.3422284551797157.94512185653242.3422284551797157.94512185
653246.3422284551797157.94512185653250.3422284551797157.94512185
653254.3422284551797157.94512185653258.3422284551797157.94512185
653262.3422284551797157.94512185653266.3422284551797157.94512185
653270.3422284551797157.94512185653274.3422284551797157.94512185
653278.3422284551797157.94512185653282.3422284551797157.94512185
653286.3422284551797157.94512185653290.3422284551797157.94512185
653294.3422284551797157.94512185653298.3422284551797157.94512185
653302.3422284551797157.94512185653306.3422284551797157.94512185
653202.3422284551797141.94512185653206.3422284551797141.94512185
653210.3422284551797141.94512185653214.3422284551797141.94512185
653218.3422284551797141.94512185653222.3422284551797141.94512185
653226.3422284551797141.94512185653230.3422284551797141.94512185
653234.3422284551797141.94512185653238.3422284551797141.94512185
653242.3422284551797141.94512185653246.3422284551797141.94512185
653250.3422284551797141.94512185653254.3422284551797141.94512185
653258.3422284551797141.94512185653262.3422284551797141.94512185
653266.3422284551797141.94512185653270.3422284551797141.94512185
653274.3422284551797141.94512185653278.3422284551797141.94512185
653282.3422284551797141.94512185653286.3422284551797141.94512185
653290.3422284551797141.94512185653294.3422284551797141.94512185
653298.3422284551797141.94512185653302.3422284551797141.94512185
653306.3422284551797141.94512185653202.3422284551797137.94512185
653206.3422284551797137.94512185653210.3422284551797137.94512185
653214.3422284551797137.94512185653218.3422284551797137.94512185
653222.3422284551797137.94512185653226.3422284551797137.94512185
653230.3422284551797137.94512185653234.3422284551797137.94512185
653238.3422284551797137.94512185653242.3422284551797137.94512185
653246.3422284551797137.94512185653250.3422284551797137.94512185
653254.3422284551797137.94512185653258.3422284551797137.94512185
653262.3422284551797137.94512185653266.3422284551797137.94512185
653270.3422284551797137.94512185653274.3422284551797137.94512185
653278.3422284551797137.94512185653282.3422284551797137.94512185
653286.3422284551797137.94512185653290.3422284551797137.94512185
653294.3422284551797137.94512185653298.3422284551797137.94512185
653302.3422284551797137.94512185653306.3422284551797137.94512185
653202.3422284551797133.94512185653206.3422284551797133.94512185
653210.3422284551797133.94512185653214.3422284551797133.94512185
653218.3422284551797133.94512185653222.3422284551797133.94512185
653226.3422284551797133.94512185653230.3422284551797133.94512185
653234.3422284551797133.94512185653238.3422284551797133.94512185
653242.3422284551797133.94512185653246.3422284551797133.94512185
653250.3422284551797133.94512185653254.3422284551797133.94512185
653258.3422284551797133.94512185653262.3422284551797133.94512185
653266.3422284551797133.94512185653270.3422284551797133.94512185
653274.3422284551797133.94512185653278.3422284551797133.94512185
653282.3422284551797133.94512185653286.3422284551797133.94512185
653290.3422284551797133.94512185653294.3422284551797133.94512185
653298.3422284551797133.94512185653302.3422284551797133.94512185
653306.3422284551797133.94512185653304.6710274161797147.87376483
653300.7131166831797147.87215977 653296.75520595 1797147.8705547
653292.7972952171797147.86894964653288.8393844831797147.86734458
 653284.881473751797147.86573951653280.9235630171797147.86413445
653276.9656522841797147.86252939 653273.007741551797147.86092432
653269.0498308171797147.85931926653265.0919200841797147.85771419
653261.1340093511797147.85610913653257.1760986171797147.85450407
653253.218187884  1797147.852899653249.2602771511797147.85129394
653245.3023664181797147.84968888653241.3444556841797147.84808381
653237.3865449511797147.84647875653233.4286342181797147.84487368
653229.4707234851797147.84326862653225.5128127511797147.84166356
653221.5549020181797147.84005849653217.5969912851797147.83845343
653213.6390805521797147.83684837653209.681169818 1797147.8352433
653205.7232590851797147.83363824653304.669405284 1797151.8737645
653300.7114945511797151.87215944653296.7535838181797151.87055438
653292.7956730851797151.86894931653288.8377623511797151.86734425
653284.8798516181797151.86573918653280.9219408851797151.86413412
653276.9640301511797151.86252906653273.0061194181797151.86092399
653269.0482086851797151.85931893653265.0902979521797151.85771387
653261.132387219 1797151.8561088653257.1744764851797151.85450374
653253.2165657521797151.85289867653249.2586550191797151.85129361
653245.3007442851797151.84968855653241.3428335521797151.84808348
653237.3849228191797151.84647842653233.4270120861797151.84487336
653229.4691013531797151.84326829653225.5111906191797151.84166323
653221.5532798861797151.84005816653217.595369153 1797151.8384531
 653213.637458421797151.83684804653209.6795476861797151.83524297
653205.7216369531797151.83363791653201.8606933821797202.01119247
653205.8095945581797202.01099826653209.7584957341797202.01080406
 653213.707396911797202.01060985653217.6562980851797202.01041565
653221.6051992611797202.01022144653225.5541004371797202.01002724
653229.5030016131797202.00983303653233.4519027891797202.00963882
653237.4008039651797202.00944462653241.3497051411797202.00925041
653245.2986063171797202.00905621653249.247507493  1797202.008862
653253.196408669 1797202.0086678653257.1453098451797202.00847359
653261.0942110211797202.00827939653265.0431121971797202.00808518
653268.9920133731797202.00789097653272.9409145491797202.00769677
653276.8898157251797202.00750256653280.8387169011797202.00730836
653284.7876180771797202.00711415653288.7365192531797202.00691995
653292.6854204291797202.00672574653296.6343216051797202.00653153
653300.5832227811797202.00633733653304.5321239571797202.00614312
653201.8604966631797198.01119247653205.8093978391797198.01099827
653209.7582990151797198.01080406653213.7072001911797198.01060986
653217.6561013671797198.01041565653221.6050025431797198.01022145
653225.5539037191797198.01002724653229.5028048951797198.00983303
653233.4517060711797198.00963883653237.4006072471797198.00944462
653241.3495084231797198.00925042653245.2984095991797198.00905621
653249.2473107751797198.00886201653253.196211951 1797198.0086678
653257.145113127 1797198.0084736653261.0940143031797198.00827939
653265.0429154781797198.00808518653268.9918166541797198.00789098
 653272.940717831797198.00769677653276.8896190061797198.00750257
653280.8385201821797198.00730836653284.7874213581797198.00711416
653288.7363225341797198.00691995 653292.685223711797198.00672574
653296.6341248861797198.00653154653300.5830260621797198.00633733
653304.5319272381797198.00614313
Storage Area 2D PointsPerimeterTime=18Jan2023 13:59:04
Storage Area Mannings=0.06
2D Cell Volume Filter Tolerance=0.003
2D Cell Minimum Area Fraction=0.01
2D Face Profile Filter Tolerance=0.003
2D Face Area Elevation Profile Filter Tolerance=0.003
2D Face Area Elevation Conveyance Ratio=0.02
2D Face Area Laminar Depth=0.06
2D Multiple Face Mann n=0

Storage Area=Perimeter 2     ,,
Storage Area Surface Line= 5 
653490.2275150791797213.58963957                
653490.2275150791797137.18285738                
653382.3591166941797137.52858943                
653382.3591166941797212.89817548                
653490.2275150791797213.58963957                
Storage Area Type= 1 
Storage Area Area=
Storage Area Min Elev=
Storage Area Is2D=-1
Storage Area Point Generation Data=,,2,2
Storage Area 2D Points= 2037 
653413.3591166941797212.58963957653415.3591166941797212.58963957
653417.3591166941797212.58963957653419.3591166941797212.58963957
653421.3591166941797212.58963957653423.3591166941797212.58963957
653425.3591166941797212.58963957653427.3591166941797212.58963957
653429.3591166941797212.58963957653431.3591166941797212.58963957
653433.3591166941797212.58963957653435.3591166941797212.58963957
653437.3591166941797212.58963957653439.3591166941797212.58963957
653441.3591166941797212.58963957653443.3591166941797212.58963957
653445.3591166941797212.58963957653447.3591166941797212.58963957
653449.3591166941797212.58963957653451.3591166941797212.58963957
653453.3591166941797212.58963957653455.3591166941797212.58963957
653457.3591166941797212.58963957653459.3591166941797212.58963957
653461.3591166941797212.58963957653463.3591166941797212.58963957
653465.3591166941797212.58963957653467.3591166941797212.58963957
653469.3591166941797212.58963957653471.3591166941797212.58963957
653473.3591166941797212.58963957653475.3591166941797212.58963957
653477.3591166941797212.58963957653479.3591166941797212.58963957
653481.3591166941797212.58963957653483.3591166941797212.58963957
653485.3591166941797212.58963957653487.3591166941797212.58963957
653489.3591166941797212.58963957653383.3591166941797210.58963957
653385.3591166941797210.58963957653387.3591166941797210.58963957
653389.3591166941797210.58963957653391.3591166941797210.58963957
653393.3591166941797210.58963957653395.3591166941797210.58963957
653397.3591166941797210.58963957653399.3591166941797210.58963957
653401.3591166941797210.58963957653403.3591166941797210.58963957
653405.3591166941797210.58963957653407.3591166941797210.58963957
653409.3591166941797210.58963957653411.3591166941797210.58963957
653413.3591166941797210.58963957653415.3591166941797210.58963957
653417.3591166941797210.58963957653419.3591166941797210.58963957
653421.3591166941797210.58963957653423.3591166941797210.58963957
653425.3591166941797210.58963957653427.3591166941797210.58963957
653429.3591166941797210.58963957653431.3591166941797210.58963957
653433.3591166941797210.58963957653435.3591166941797210.58963957
653437.3591166941797210.58963957653439.3591166941797210.58963957
653441.3591166941797210.58963957653443.3591166941797210.58963957
653445.3591166941797210.58963957653447.3591166941797210.58963957
653449.3591166941797210.58963957653451.3591166941797210.58963957
653453.3591166941797210.58963957653455.3591166941797210.58963957
653457.3591166941797210.58963957653459.3591166941797210.58963957
653461.3591166941797210.58963957653463.3591166941797210.58963957
653465.3591166941797210.58963957653467.3591166941797210.58963957
653469.3591166941797210.58963957653471.3591166941797210.58963957
653473.3591166941797210.58963957653475.3591166941797210.58963957
653477.3591166941797210.58963957653479.3591166941797210.58963957
653481.3591166941797210.58963957653483.3591166941797210.58963957
653485.3591166941797210.58963957653487.3591166941797210.58963957
653489.3591166941797210.58963957653383.3591166941797208.58963957
653385.3591166941797208.58963957653387.3591166941797208.58963957
653389.3591166941797208.58963957653391.3591166941797208.58963957
653393.3591166941797208.58963957653395.3591166941797208.58963957
653397.3591166941797208.58963957653399.3591166941797208.58963957
653401.3591166941797208.58963957653403.3591166941797208.58963957
653405.3591166941797208.58963957653407.3591166941797208.58963957
653409.3591166941797208.58963957653411.3591166941797208.58963957
653413.3591166941797208.58963957653415.3591166941797208.58963957
653417.3591166941797208.58963957653419.3591166941797208.58963957
653421.3591166941797208.58963957653423.3591166941797208.58963957
653425.3591166941797208.58963957653427.3591166941797208.58963957
653429.3591166941797208.58963957653431.3591166941797208.58963957
653433.3591166941797208.58963957653435.3591166941797208.58963957
653437.3591166941797208.58963957653439.3591166941797208.58963957
653441.3591166941797208.58963957653443.3591166941797208.58963957
653445.3591166941797208.58963957653447.3591166941797208.58963957
653449.3591166941797208.58963957653451.3591166941797208.58963957
653453.3591166941797208.58963957653455.3591166941797208.58963957
653457.3591166941797208.58963957653459.3591166941797208.58963957
653461.3591166941797208.58963957653463.3591166941797208.58963957
653465.3591166941797208.58963957653467.3591166941797208.58963957
653469.3591166941797208.58963957653471.3591166941797208.58963957
653473.3591166941797208.58963957653475.3591166941797208.58963957
653477.3591166941797208.58963957653479.3591166941797208.58963957
653481.3591166941797208.58963957653483.3591166941797208.58963957
653485.3591166941797208.58963957653487.3591166941797208.58963957
653489.3591166941797208.58963957653383.3591166941797206.58963957
653385.3591166941797206.58963957653387.3591166941797206.58963957
653389.3591166941797206.58963957653391.3591166941797206.58963957
653393.3591166941797206.58963957653395.3591166941797206.58963957
653397.3591166941797206.58963957653399.3591166941797206.58963957
653401.3591166941797206.58963957653403.3591166941797206.58963957
653405.3591166941797206.58963957653407.3591166941797206.58963957
653409.3591166941797206.58963957653411.3591166941797206.58963957
653413.3591166941797206.58963957653415.3591166941797206.58963957
653417.3591166941797206.58963957653419.3591166941797206.58963957
653421.3591166941797206.58963957653423.3591166941797206.58963957
653425.3591166941797206.58963957653427.3591166941797206.58963957
653429.3591166941797206.58963957653431.3591166941797206.58963957
653433.3591166941797206.58963957653435.3591166941797206.58963957
653437.3591166941797206.58963957653439.3591166941797206.58963957
653441.3591166941797206.58963957653443.3591166941797206.58963957
653445.3591166941797206.58963957653447.3591166941797206.58963957
653449.3591166941797206.58963957653451.3591166941797206.58963957
653453.3591166941797206.58963957653455.3591166941797206.58963957
653457.3591166941797206.58963957653459.3591166941797206.58963957
653461.3591166941797206.58963957653463.3591166941797206.58963957
653465.3591166941797206.58963957653467.3591166941797206.58963957
653469.3591166941797206.58963957653471.3591166941797206.58963957
653473.3591166941797206.58963957653475.3591166941797206.58963957
653477.3591166941797206.58963957653479.3591166941797206.58963957
653481.3591166941797206.58963957653483.3591166941797206.58963957
653485.3591166941797206.58963957653487.3591166941797206.58963957
653489.3591166941797206.58963957653383.3591166941797204.58963957
653385.3591166941797204.58963957653387.3591166941797204.58963957
653389.3591166941797204.58963957653391.3591166941797204.58963957
653393.3591166941797204.58963957653395.3591166941797204.58963957
653397.3591166941797204.58963957653399.3591166941797204.58963957
653401.3591166941797204.58963957653403.3591166941797204.58963957
653405.3591166941797204.58963957653407.3591166941797204.58963957
653409.3591166941797204.58963957653411.3591166941797204.58963957
653413.3591166941797204.58963957653415.3591166941797204.58963957
653417.3591166941797204.58963957653419.3591166941797204.58963957
653421.3591166941797204.58963957653423.3591166941797204.58963957
653425.3591166941797204.58963957653427.3591166941797204.58963957
653429.3591166941797204.58963957653431.3591166941797204.58963957
653433.3591166941797204.58963957653435.3591166941797204.58963957
653437.3591166941797204.58963957653439.3591166941797204.58963957
653441.3591166941797204.58963957653443.3591166941797204.58963957
653445.3591166941797204.58963957653447.3591166941797204.58963957
653449.3591166941797204.58963957653451.3591166941797204.58963957
653453.3591166941797204.58963957653455.3591166941797204.58963957
653457.3591166941797204.58963957653459.3591166941797204.58963957
653461.3591166941797204.58963957653463.3591166941797204.58963957
653465.3591166941797204.58963957653467.3591166941797204.58963957
653469.3591166941797204.58963957653471.3591166941797204.58963957
653473.3591166941797204.58963957653475.3591166941797204.58963957
653477.3591166941797204.58963957653479.3591166941797204.58963957
653481.3591166941797204.58963957653483.3591166941797204.58963957
653485.3591166941797204.58963957653487.3591166941797204.58963957
653489.3591166941797204.58963957653383.3591166941797202.58963957
653385.3591166941797202.58963957653387.3591166941797202.58963957
653389.3591166941797202.58963957653391.3591166941797202.58963957
653393.3591166941797202.58963957653395.3591166941797202.58963957
653397.3591166941797202.58963957653399.3591166941797202.58963957
653401.3591166941797202.58963957653403.3591166941797202.58963957
653405.3591166941797202.58963957653407.3591166941797202.58963957
653409.3591166941797202.58963957653411.3591166941797202.58963957
653413.3591166941797202.58963957653415.3591166941797202.58963957
653417.3591166941797202.58963957653419.3591166941797202.58963957
653421.3591166941797202.58963957653423.3591166941797202.58963957
653425.3591166941797202.58963957653427.3591166941797202.58963957
653429.3591166941797202.58963957653431.3591166941797202.58963957
653433.3591166941797202.58963957653435.3591166941797202.58963957
653437.3591166941797202.58963957653439.3591166941797202.58963957