Geom Title=dummy
Program Version=6.31
Viewing Rectangle= 653200.8242 , 653500.825 , 1797430.1755 , 1797130.1747 

LCMann Time=Dec/30/1899 00:00:00
LCMann Region Time=Dec/30/1899 00:00:00
LCMann Table=0
Chan Stop Cuts=-1 



Use User Specified Reach Order=0
GIS Ratio Cuts To Invert=-1
GIS Limit At Bridges=0
Composite Channel Slope=5
