Plan Title=plan_4321
Program Version=6.00
Short Identifier=plan_43210                                                      
Simulation Date=,,,
Subcritical Flow
K Sum by GR= 0 
Std Step Tol= 0.003 
Critical Tol= 0.003 
Num of Std Step Trials= 20 
Max Error Tol= 0.1 
Flow Tol Ratio= 0.001 
Split Flow NTrial= 30 
Split Flow Tol= 0.006 
Split Flow Ratio= 0.02 
Log Output Level= 0 
Friction Slope Method= 1 
Unsteady Friction Slope Method= 2 
Unsteady Bridges Friction Slope Method= 1 
Parabolic Critical Depth
Global Vel Dist= 0 , 0 , 0 
Global Log Level= 0 
CheckData=True
Encroach Param=-1 ,0,0, 0 
Computation Interval=1MIN
Output Interval=1HOUR
Instantaneous Interval=1HOUR
Mapping Interval=1HOUR
Computation Time Step Use Courant=        0
Computation Time Step Use Time Series=    0
Computation Time Step Max Courant=
Computation Time Step Min Courant=
Computation Time Step Count To Double=0
Computation Time Step Max Doubling=0
Computation Time Step Max Halving=0
Computation Time Step Residence Courant=0
Run HTab= 0 
Run UNet= 0 
Run Sediment= 0 
Run PostProcess= 0 
Run WQNet= 0 
Run RASMapper= 0 
UNET Theta= 1 
UNET Theta Warmup= 1 
UNET ZTol= 0.006 
UNET ZSATol= 0.006 
UNET QTol=
UNET MxIter= 20 
UNET Max Iter WO Improvement= 0 
UNET MaxInSteps= 0 
UNET DtIC= 0 
UNET DtMin= 0 
UNET MaxCRTS= 20 
UNET WFStab= 2 
UNET SFStab= 1 
UNET WFX= 1 
UNET SFX= 1 
UNET Gravity=9.806635
UNET 1D Methodology=Finite Difference
UNET DSS MLevel= 4 
UNET Pardiso=0
UNET DZMax Abort= 30 
UNET Use Existing IB Tables=-1 
UNET Froude Reduction=False
UNET Froude Limit= 0.8 
UNET Froude Power= 4 
UNET D1 Cores= 0 
UNET WindReference=Eulerian
UNET WindDragFormulation=Hsu (1988)
UNET D2 Coriolis=0
UNET D2 Cores= 0 
UNET D2 Theta= 1 
UNET D2 Theta Warmup= 1 
UNET D2 Z Tol= 0.003 
UNET D2 Volume Tol= 0.003 
UNET D2 Max Iterations= 20 
UNET D2 Equation= 0 
UNET D2 TotalICTime=
UNET D2 RampUpFraction=0.1
UNET D2 TimeSlices= 1 
UNET D2 Turbulence Formulation=None
UNET D2 Eddy Viscosity=0.3
UNET D2 Transverse Eddy Viscosity=0.1
UNET D2 Smagorinsky Mixing=0.05
UNET D2 BCVolumeCheck=0
UNET D2 Latitude=
UNET D2 Cores=0
UNET D2 SolverType=PARDISO (Direct)
UNET D2 Minimum Iterations= 2147483647 
UNET D2 Maximum Iterations= 2147483647 
UNET D2 Restart Number= 10 
UNET D2 Relaxation Coeff=1.3
UNET D2 SOR Precondition Iterations= 10 
UNET D2 ILUT Maximum Fill= 8 
UNET D2 ILUT Tolerance=1E-08
UNET D2 Convergence Tolerance=
UNET D1D2 MaxIter= 0 
UNET D1D2 ZTol=0.003
UNET D1D2 QTol=0.1
UNET D1D2 MinQTol=0.03
DSS File=dss
Write IC File= 0 
Write IC File at Fixed DateTime=0
IC Time=,,
Write IC File Reoccurance=
Write IC File at Sim End=0
Echo Input=False
Echo Parameters=False
Echo Output=False
Write Detailed= 0 
HDF Write Warmup=0
HDF Write Time Slices=0
HDF Flush=0
HDF Compression= 1 
HDF Chunk Size= 1 
HDF Spatial Parts= 1 
HDF Use Max Rows=0
HDF Fixed Rows= 1 
Calibration Method= 0 
Calibration Iterations= 20 
Calibration Max Change=0.05
Calibration Tolerance=0.2
Calibration Maximum=1.5
Calibration Minimum=0.5
Calibration Optimization Method= 1 
Calibration Window=,,,
WQ AD Non Conservative
WQ ULTIMATE=-1
WQ Max Comp Step=1HOUR
WQ Output Interval=15MIN
WQ Output Selected Increments= 0 
WQ Output face flow=0
WQ Output face velocity=0
WQ Output face area=0
WQ Output face dispersion=0
WQ Output cell volume=0
WQ Output cell surface area=0
WQ Output cell continuity=0
WQ Output cumulative cell continuity=0
WQ Output face conc=0
WQ Output face dconc_dx=0
WQ Output face courant=0
WQ Output face peclet=0
WQ Output face adv mass=0
WQ Output face disp mass=0
WQ Output cell mass=0
WQ Output cell source sink temp=0
WQ Output nsm pathways=0
WQ Output nsm derived pathways=0
WQ Create Restart=0
WQ Fixed Restart=0
WQ Restart Simtime=
WQ Restart Date=
WQ Restart Hour=
WQ System Summary=0
WQ Write To DSS=0
Sorting and Armoring Iterations= 10 
XS Update Threshold= 0.02 
Bed Roughness Predictor= 0 
Hydraulics Update Threshold= 0.02 
Energy Slope Method= 1 
Volume Change Method= 1 
Sediment Retention Method= 0 
Sediment TS Multiplier= 1 
Warm Up Method= 0 
Warm Up Duration=
Warm Up Duration - Concentration=
Warm Up Duration - Gradation=
Warm Up Duration - Bathymetry=
XS Weighting Method= 0 
Number of US Weighted Cross Sections= 1 
Number of DS Weighted Cross Sections= 1 
Upstream XS Weight=0
Main XS Weight=1
Downstream XS Weight=0
Number of DS XS's Weighted with US Boundary= 1 
Upstream Boundary Weight= 1 
Weight of XSs Associated with US Boundary= 0 
Number of US XS's Weighted with DS Boundary= 1 
Downstream Boundary Weight= 0.5 
Weight of XSs Associated with DS Boundary= 0.5 
Percentile Method= 0 
Sediment Output Level= 3 
Mass or Volume Output= 0 
Output Increment Type= 1 
Profile and TS Output Increment= 1 
Transport Output Increment 1 
XS Output Flag= 0 
XS Output Increment= 10 
Read HDF5 Sediment Hotstart= 0 
Sediment Hotstart Type= 0 
Sediment Hotstart File=
Sediment Hotstart Date=
Sediment Hotstart Time=
Write Gradation File= 0 
Read Gradation Hotstart= 0 
Gradation File Name=
Write HDF5 File= 1 
Write Binary Output= 1 
Write DSS Sediment File= 0 
DSS Sediment Output Type= 1 
DSS Location=
Summary Reach=
SV Curve= 0 
Specific Gage Flag= 0 
Subcell Erosion Methods= 0 
Subcell Deposition Methods= 0 
Advection Scheme= 1 
Matrix Solver= 0 
Implicit Weighting Factor= 1 
Maximum Outer Loop Convergence Iterations= 5 
Convergence Maximum Absolute= 0.001 
Convergence RMSE= 0.0001 
Grain Fractions Max Abs Error= 0.001 
Max Subgrid Regions= 1 
Max Subgrid Length Scale= 3.402823E+38 
Initial Layer Thickness= 3.402823E+38 
Min Layer Thickness= 3.402823E+38 
Max Layer Thickness= 3.402823E+38 
Number of Layers= 5 
