Geom Title=Geom_1
Program Version=6.00
Viewing Rectangle= 653048.310820479 , 654032.565299973 , 1797525.51623607 , 1796624.09505435 

Storage Area=Perimeter 1     ,,
Storage Area Surface Line= 5 
653792.9245828681797484.54254599                
653987.8264599961796824.53391663                
653128.4863653891796665.06874443                
653093.0496604561797444.67625294                
653792.9245828681797484.54254599                
Storage Area Type= 1 
Storage Area Area=
Storage Area Min Elev=
Storage Area Is2D=-1
Storage Area Point Generation Data=,,10,10
Storage Area 2D Points= 5648 
653758.0496604561797479.54254599653768.0496604561797479.54254599
653778.0496604561797479.54254599653788.0496604561797479.54254599
653578.0496604561797469.54254599653588.0496604561797469.54254599
653598.0496604561797469.54254599653608.0496604561797469.54254599
653618.0496604561797469.54254599653628.0496604561797469.54254599
653638.0496604561797469.54254599653648.0496604561797469.54254599
653658.0496604561797469.54254599653668.0496604561797469.54254599
653678.0496604561797469.54254599653688.0496604561797469.54254599
653698.0496604561797469.54254599653708.0496604561797469.54254599
653718.0496604561797469.54254599653728.0496604561797469.54254599
653738.0496604561797469.54254599653748.0496604561797469.54254599
653758.0496604561797469.54254599653768.0496604561797469.54254599
653778.0496604561797469.54254599653788.0496604561797469.54254599
653398.0496604561797459.54254599653408.0496604561797459.54254599
653418.0496604561797459.54254599653428.0496604561797459.54254599
653438.0496604561797459.54254599653448.0496604561797459.54254599
653458.0496604561797459.54254599653468.0496604561797459.54254599
653478.0496604561797459.54254599653488.0496604561797459.54254599
653498.0496604561797459.54254599653508.0496604561797459.54254599
653518.0496604561797459.54254599653528.0496604561797459.54254599
653538.0496604561797459.54254599653548.0496604561797459.54254599
653558.0496604561797459.54254599653568.0496604561797459.54254599
653578.0496604561797459.54254599653588.0496604561797459.54254599
653598.0496604561797459.54254599653608.0496604561797459.54254599
653618.0496604561797459.54254599653628.0496604561797459.54254599
653638.0496604561797459.54254599653648.0496604561797459.54254599
653658.0496604561797459.54254599653668.0496604561797459.54254599
653678.0496604561797459.54254599653688.0496604561797459.54254599
653698.0496604561797459.54254599653708.0496604561797459.54254599
653718.0496604561797459.54254599653728.0496604561797459.54254599
653738.0496604561797459.54254599653748.0496604561797459.54254599
653758.0496604561797459.54254599653768.0496604561797459.54254599
653778.0496604561797459.54254599653788.0496604561797459.54254599
653228.0496604561797449.54254599653238.0496604561797449.54254599
653248.0496604561797449.54254599653258.0496604561797449.54254599
653268.0496604561797449.54254599653278.0496604561797449.54254599
653288.0496604561797449.54254599653298.0496604561797449.54254599
653308.0496604561797449.54254599653318.0496604561797449.54254599
653328.0496604561797449.54254599653338.0496604561797449.54254599
653348.0496604561797449.54254599653358.0496604561797449.54254599
653368.0496604561797449.54254599653378.0496604561797449.54254599
653388.0496604561797449.54254599653398.0496604561797449.54254599
653408.0496604561797449.54254599653418.0496604561797449.54254599
653428.0496604561797449.54254599653438.0496604561797449.54254599
653448.0496604561797449.54254599653458.0496604561797449.54254599
653468.0496604561797449.54254599653478.0496604561797449.54254599
653488.0496604561797449.54254599653498.0496604561797449.54254599
653508.0496604561797449.54254599653518.0496604561797449.54254599
653528.0496604561797449.54254599653538.0496604561797449.54254599
653548.0496604561797449.54254599653558.0496604561797449.54254599
653568.0496604561797449.54254599653578.0496604561797449.54254599
653588.0496604561797449.54254599653598.0496604561797449.54254599
653608.0496604561797449.54254599653618.0496604561797449.54254599
653628.0496604561797449.54254599653638.0496604561797449.54254599
653648.0496604561797449.54254599653658.0496604561797449.54254599
653668.0496604561797449.54254599653678.0496604561797449.54254599
653688.0496604561797449.54254599653698.0496604561797449.54254599
653708.0496604561797449.54254599653718.0496604561797449.54254599
653728.0496604561797449.54254599653738.0496604561797449.54254599
653748.0496604561797449.54254599653758.0496604561797449.54254599
653768.0496604561797449.54254599653778.0496604561797449.54254599
653788.0496604561797449.54254599653798.0496604561797449.54254599
653098.0496604561797439.54254599653108.0496604561797439.54254599
653118.0496604561797439.54254599653128.0496604561797439.54254599
653138.0496604561797439.54254599653148.0496604561797439.54254599
653158.0496604561797439.54254599653168.0496604561797439.54254599
653178.0496604561797439.54254599653188.0496604561797439.54254599
653198.0496604561797439.54254599653208.0496604561797439.54254599
653218.0496604561797439.54254599653228.0496604561797439.54254599
653238.0496604561797439.54254599653248.0496604561797439.54254599
653258.0496604561797439.54254599653268.0496604561797439.54254599
653278.0496604561797439.54254599653288.0496604561797439.54254599
653298.0496604561797439.54254599653308.0496604561797439.54254599
653318.0496604561797439.54254599653328.0496604561797439.54254599
653338.0496604561797439.54254599653348.0496604561797439.54254599
653358.0496604561797439.54254599653368.0496604561797439.54254599
653378.0496604561797439.54254599653388.0496604561797439.54254599
653398.0496604561797439.54254599653408.0496604561797439.54254599
653418.0496604561797439.54254599653428.0496604561797439.54254599
653438.0496604561797439.54254599653448.0496604561797439.54254599
653458.0496604561797439.54254599653468.0496604561797439.54254599
653478.0496604561797439.54254599653488.0496604561797439.54254599
653498.0496604561797439.54254599653508.0496604561797439.54254599
653518.0496604561797439.54254599653528.0496604561797439.54254599
653538.0496604561797439.54254599653548.0496604561797439.54254599
653558.0496604561797439.54254599653568.0496604561797439.54254599
653578.0496604561797439.54254599653588.0496604561797439.54254599
653598.0496604561797439.54254599653608.0496604561797439.54254599
653618.0496604561797439.54254599653628.0496604561797439.54254599
653638.0496604561797439.54254599653648.0496604561797439.54254599
653658.0496604561797439.54254599653668.0496604561797439.54254599
653678.0496604561797439.54254599653688.0496604561797439.54254599
653698.0496604561797439.54254599653708.0496604561797439.54254599
653718.0496604561797439.54254599653728.0496604561797439.54254599
653738.0496604561797439.54254599653748.0496604561797439.54254599
653758.0496604561797439.54254599653768.0496604561797439.54254599
653778.0496604561797439.54254599653788.0496604561797439.54254599
653798.0496604561797439.54254599653098.0496604561797429.54254599
653108.0496604561797429.54254599653118.0496604561797429.54254599
653128.0496604561797429.54254599653138.0496604561797429.54254599
653148.0496604561797429.54254599653158.0496604561797429.54254599
653168.0496604561797429.54254599653178.0496604561797429.54254599
653188.0496604561797429.54254599653198.0496604561797429.54254599
653208.0496604561797429.54254599653218.0496604561797429.54254599
653228.0496604561797429.54254599653238.0496604561797429.54254599
653248.0496604561797429.54254599653258.0496604561797429.54254599
653268.0496604561797429.54254599653278.0496604561797429.54254599
653288.0496604561797429.54254599653298.0496604561797429.54254599
653308.0496604561797429.54254599653318.0496604561797429.54254599
653328.0496604561797429.54254599653338.0496604561797429.54254599
653348.0496604561797429.54254599653358.0496604561797429.54254599
653368.0496604561797429.54254599653378.0496604561797429.54254599
653388.0496604561797429.54254599653398.0496604561797429.54254599
653408.0496604561797429.54254599653418.0496604561797429.54254599
653428.0496604561797429.54254599653438.0496604561797429.54254599
653448.0496604561797429.54254599653458.0496604561797429.54254599
653468.0496604561797429.54254599653478.0496604561797429.54254599
653488.0496604561797429.54254599653498.0496604561797429.54254599
653508.0496604561797429.54254599653518.0496604561797429.54254599
653528.0496604561797429.54254599653538.0496604561797429.54254599
653548.0496604561797429.54254599653558.0496604561797429.54254599
653568.0496604561797429.54254599653578.0496604561797429.54254599
653588.0496604561797429.54254599653598.0496604561797429.54254599
653608.0496604561797429.54254599653618.0496604561797429.54254599
653628.0496604561797429.54254599653638.0496604561797429.54254599
653648.0496604561797429.54254599653658.0496604561797429.54254599
653668.0496604561797429.54254599653678.0496604561797429.54254599
653688.0496604561797429.54254599653698.0496604561797429.54254599
653708.0496604561797429.54254599653718.0496604561797429.54254599
653728.0496604561797429.54254599653738.0496604561797429.54254599
653748.0496604561797429.54254599653758.0496604561797429.54254599
653768.0496604561797429.54254599653778.0496604561797429.54254599
653788.0496604561797429.54254599653798.0496604561797429.54254599
653098.0496604561797419.54254599653108.0496604561797419.54254599
653118.0496604561797419.54254599653128.0496604561797419.54254599
653138.0496604561797419.54254599653148.0496604561797419.54254599
653158.0496604561797419.54254599653168.0496604561797419.54254599
653178.0496604561797419.54254599653188.0496604561797419.54254599
653198.0496604561797419.54254599653208.0496604561797419.54254599
653218.0496604561797419.54254599653228.0496604561797419.54254599
653238.0496604561797419.54254599653248.0496604561797419.54254599
653258.0496604561797419.54254599653268.0496604561797419.54254599
653278.0496604561797419.54254599653288.0496604561797419.54254599
653298.0496604561797419.54254599653308.0496604561797419.54254599
653318.0496604561797419.54254599653328.0496604561797419.54254599
653338.0496604561797419.54254599653348.0496604561797419.54254599
653358.0496604561797419.54254599653368.0496604561797419.54254599
653378.0496604561797419.54254599653388.0496604561797419.54254599
653398.0496604561797419.54254599653408.0496604561797419.54254599
653418.0496604561797419.54254599653428.0496604561797419.54254599
653438.0496604561797419.54254599653448.0496604561797419.54254599
653458.0496604561797419.54254599653468.0496604561797419.54254599
653478.0496604561797419.54254599653488.0496604561797419.54254599
653498.0496604561797419.54254599653508.0496604561797419.54254599
653518.0496604561797419.54254599653528.0496604561797419.54254599
653538.0496604561797419.54254599653548.0496604561797419.54254599
653558.0496604561797419.54254599653568.0496604561797419.54254599
653578.0496604561797419.54254599653588.0496604561797419.54254599
653598.0496604561797419.54254599653608.0496604561797419.54254599
653618.0496604561797419.54254599653628.0496604561797419.54254599
653638.0496604561797419.54254599653648.0496604561797419.54254599
653658.0496604561797419.54254599653668.0496604561797419.54254599
653678.0496604561797419.54254599653688.0496604561797419.54254599
653698.0496604561797419.54254599653708.0496604561797419.54254599
653718.0496604561797419.54254599653728.0496604561797419.54254599
653738.0496604561797419.54254599653748.0496604561797419.54254599
653758.0496604561797419.54254599653768.0496604561797419.54254599
653778.0496604561797419.54254599653788.0496604561797419.54254599
653798.0496604561797419.54254599653808.0496604561797419.54254599
653098.0496604561797409.54254599653108.0496604561797409.54254599
653118.0496604561797409.54254599653128.0496604561797409.54254599
653138.0496604561797409.54254599653148.0496604561797409.54254599
653158.0496604561797409.54254599653168.0496604561797409.54254599
653178.0496604561797409.54254599653188.0496604561797409.54254599
653198.0496604561797409.54254599653208.0496604561797409.54254599
653218.0496604561797409.54254599653228.0496604561797409.54254599
653238.0496604561797409.54254599653248.0496604561797409.54254599
653258.0496604561797409.54254599653268.0496604561797409.54254599
653278.0496604561797409.54254599653288.0496604561797409.54254599
653298.0496604561797409.54254599653308.0496604561797409.54254599
653318.0496604561797409.54254599653328.0496604561797409.54254599
653338.0496604561797409.54254599653348.0496604561797409.54254599
653358.0496604561797409.54254599653368.0496604561797409.54254599
653378.0496604561797409.54254599653388.0496604561797409.54254599
653398.0496604561797409.54254599653408.0496604561797409.54254599
653418.0496604561797409.54254599653428.0496604561797409.54254599
653438.0496604561797409.54254599653448.0496604561797409.54254599
653458.0496604561797409.54254599653468.0496604561797409.54254599
653478.0496604561797409.54254599653488.0496604561797409.54254599
653498.0496604561797409.54254599653508.0496604561797409.54254599
653518.0496604561797409.54254599653528.0496604561797409.54254599
653538.0496604561797409.54254599653548.0496604561797409.54254599
653558.0496604561797409.54254599653568.0496604561797409.54254599
653578.0496604561797409.54254599653588.0496604561797409.54254599
653598.0496604561797409.54254599653608.0496604561797409.54254599
653618.0496604561797409.54254599653628.0496604561797409.54254599
653638.0496604561797409.54254599653648.0496604561797409.54254599
653658.0496604561797409.54254599653668.0496604561797409.54254599
653678.0496604561797409.54254599653688.0496604561797409.54254599
653698.0496604561797409.54254599653708.0496604561797409.54254599
653718.0496604561797409.54254599653728.0496604561797409.54254599
653738.0496604561797409.54254599653748.0496604561797409.54254599
653758.0496604561797409.54254599653768.0496604561797409.54254599
653778.0496604561797409.54254599653788.0496604561797409.54254599
653798.0496604561797409.54254599653808.0496604561797409.54254599
653098.0496604561797399.54254599653108.0496604561797399.54254599
653118.0496604561797399.54254599653128.0496604561797399.54254599
653138.0496604561797399.54254599653148.0496604561797399.54254599
653158.0496604561797399.54254599653168.0496604561797399.54254599
653178.0496604561797399.54254599653188.0496604561797399.54254599
653198.0496604561797399.54254599653208.0496604561797399.54254599
653218.0496604561797399.54254599653228.0496604561797399.54254599
653238.0496604561797399.54254599653248.0496604561797399.54254599
653258.0496604561797399.54254599653268.0496604561797399.54254599
653278.0496604561797399.54254599653288.0496604561797399.54254599
653298.0496604561797399.54254599653308.0496604561797399.54254599
653318.0496604561797399.54254599653328.0496604561797399.54254599
653338.0496604561797399.54254599653348.0496604561797399.54254599
653358.0496604561797399.54254599653368.0496604561797399.54254599
653378.0496604561797399.54254599653388.0496604561797399.54254599
653398.0496604561797399.54254599653408.0496604561797399.54254599
653418.0496604561797399.54254599653428.0496604561797399.54254599
653438.0496604561797399.54254599653448.0496604561797399.54254599
653458.0496604561797399.54254599653468.0496604561797399.54254599
653478.0496604561797399.54254599653488.0496604561797399.54254599
653498.0496604561797399.54254599653508.0496604561797399.54254599
653518.0496604561797399.54254599653528.0496604561797399.54254599
653538.0496604561797399.54254599653548.0496604561797399.54254599
653558.0496604561797399.54254599653568.0496604561797399.54254599
653578.0496604561797399.54254599653588.0496604561797399.54254599
653598.0496604561797399.54254599653608.0496604561797399.54254599
653618.0496604561797399.54254599653628.0496604561797399.54254599
653638.0496604561797399.54254599653648.0496604561797399.54254599
653658.0496604561797399.54254599653668.0496604561797399.54254599
653678.0496604561797399.54254599653688.0496604561797399.54254599
653698.0496604561797399.54254599653708.0496604561797399.54254599
653718.0496604561797399.54254599653728.0496604561797399.54254599
653738.0496604561797399.54254599653748.0496604561797399.54254599
653758.0496604561797399.54254599653768.0496604561797399.54254599
653778.0496604561797399.54254599653788.0496604561797399.54254599
653798.0496604561797399.54254599653808.0496604561797399.54254599
653108.0496604561797389.54254599653118.0496604561797389.54254599
653128.0496604561797389.54254599653138.0496604561797389.54254599
653148.0496604561797389.54254599653158.0496604561797389.54254599
653168.0496604561797389.54254599653178.0496604561797389.54254599
653188.0496604561797389.54254599653198.0496604561797389.54254599
653208.0496604561797389.54254599653218.0496604561797389.54254599
653228.0496604561797389.54254599653238.0496604561797389.54254599
653248.0496604561797389.54254599653258.0496604561797389.54254599
653268.0496604561797389.54254599653278.0496604561797389.54254599
653288.0496604561797389.54254599653298.0496604561797389.54254599
653308.0496604561797389.54254599653318.0496604561797389.54254599
653328.0496604561797389.54254599653338.0496604561797389.54254599
653348.0496604561797389.54254599653358.0496604561797389.54254599
653368.0496604561797389.54254599653378.0496604561797389.54254599
653388.0496604561797389.54254599653398.0496604561797389.54254599
653408.0496604561797389.54254599653418.0496604561797389.54254599
653428.0496604561797389.54254599653438.0496604561797389.54254599
653448.0496604561797389.54254599653458.0496604561797389.54254599
653468.0496604561797389.54254599653478.0496604561797389.54254599
653488.0496604561797389.54254599653498.0496604561797389.54254599
653508.0496604561797389.54254599653518.0496604561797389.54254599
653528.0496604561797389.54254599653538.0496604561797389.54254599
653548.0496604561797389.54254599653558.0496604561797389.54254599
653568.0496604561797389.54254599653578.0496604561797389.54254599
653588.0496604561797389.54254599653598.0496604561797389.54254599
653608.0496604561797389.54254599653618.0496604561797389.54254599
653628.0496604561797389.54254599653638.0496604561797389.54254599
653648.0496604561797389.54254599653658.0496604561797389.54254599
653668.0496604561797389.54254599653678.0496604561797389.54254599
653688.0496604561797389.54254599653698.0496604561797389.54254599
653708.0496604561797389.54254599653718.0496604561797389.54254599
653728.0496604561797389.54254599653738.0496604561797389.54254599
653748.0496604561797389.54254599653758.0496604561797389.54254599
653768.0496604561797389.54254599653778.0496604561797389.54254599
653788.0496604561797389.54254599653798.0496604561797389.54254599
653808.0496604561797389.54254599653818.0496604561797389.54254599
653108.0496604561797379.54254599653118.0496604561797379.54254599
653128.0496604561797379.54254599653138.0496604561797379.54254599
653148.0496604561797379.54254599653158.0496604561797379.54254599
653168.0496604561797379.54254599653178.0496604561797379.54254599
653188.0496604561797379.54254599653198.0496604561797379.54254599
653208.0496604561797379.54254599653218.0496604561797379.54254599
653228.0496604561797379.54254599653238.0496604561797379.54254599
653248.0496604561797379.54254599653258.0496604561797379.54254599
653268.0496604561797379.54254599653278.0496604561797379.54254599
653288.0496604561797379.54254599653298.0496604561797379.54254599
653308.0496604561797379.54254599653318.0496604561797379.54254599
653328.0496604561797379.54254599653338.0496604561797379.54254599
653348.0496604561797379.54254599653358.0496604561797379.54254599
653368.0496604561797379.54254599653378.0496604561797379.54254599
653388.0496604561797379.54254599653398.0496604561797379.54254599
653408.0496604561797379.54254599653418.0496604561797379.54254599
653428.0496604561797379.54254599653438.0496604561797379.54254599
653448.0496604561797379.54254599653458.0496604561797379.54254599
653468.0496604561797379.54254599653478.0496604561797379.54254599
653488.0496604561797379.54254599653498.0496604561797379.54254599
653508.0496604561797379.54254599653518.0496604561797379.54254599
653528.0496604561797379.54254599653538.0496604561797379.54254599
653548.0496604561797379.54254599653558.0496604561797379.54254599
653568.0496604561797379.54254599653578.0496604561797379.54254599
653588.0496604561797379.54254599653598.0496604561797379.54254599
653608.0496604561797379.54254599653618.0496604561797379.54254599
653628.0496604561797379.54254599653638.0496604561797379.54254599
653648.0496604561797379.54254599653658.0496604561797379.54254599
653668.0496604561797379.54254599653678.0496604561797379.54254599
653688.0496604561797379.54254599653698.0496604561797379.54254599
653708.0496604561797379.54254599653718.0496604561797379.54254599
653728.0496604561797379.54254599653738.0496604561797379.54254599
653748.0496604561797379.54254599653758.0496604561797379.54254599
653768.0496604561797379.54254599653778.0496604561797379.54254599
653788.0496604561797379.54254599653798.0496604561797379.54254599
653808.0496604561797379.54254599653818.0496604561797379.54254599
653108.0496604561797369.54254599653118.0496604561797369.54254599
653128.0496604561797369.54254599653138.0496604561797369.54254599
653148.0496604561797369.54254599653158.0496604561797369.54254599
653168.0496604561797369.54254599653178.0496604561797369.54254599
653188.0496604561797369.54254599653198.0496604561797369.54254599
653208.0496604561797369.54254599653218.0496604561797369.54254599
653228.0496604561797369.54254599653238.0496604561797369.54254599
653248.0496604561797369.54254599653258.0496604561797369.54254599
653268.0496604561797369.54254599653278.0496604561797369.54254599
653288.0496604561797369.54254599653298.0496604561797369.54254599
653308.0496604561797369.54254599653318.0496604561797369.54254599
653328.0496604561797369.54254599653338.0496604561797369.54254599
653348.0496604561797369.54254599653358.0496604561797369.54254599
653368.0496604561797369.54254599653378.0496604561797369.54254599
653388.0496604561797369.54254599653398.0496604561797369.54254599
653408.0496604561797369.54254599653418.0496604561797369.54254599
653428.0496604561797369.54254599653438.0496604561797369.54254599
653448.0496604561797369.54254599653458.0496604561797369.54254599
653468.0496604561797369.54254599653478.0496604561797369.54254599
653488.0496604561797369.54254599653498.0496604561797369.54254599
653508.0496604561797369.54254599653518.0496604561797369.54254599
653528.0496604561797369.54254599653538.0496604561797369.54254599
653548.0496604561797369.54254599653558.0496604561797369.54254599
653568.0496604561797369.54254599653578.0496604561797369.54254599
653588.0496604561797369.54254599653598.0496604561797369.54254599
653608.0496604561797369.54254599653618.0496604561797369.54254599
653628.0496604561797369.54254599653638.0496604561797369.54254599
653648.0496604561797369.54254599653658.0496604561797369.54254599
653668.0496604561797369.54254599653678.0496604561797369.54254599
653688.0496604561797369.54254599653698.0496604561797369.54254599
653708.0496604561797369.54254599653718.0496604561797369.54254599
653728.0496604561797369.54254599653738.0496604561797369.54254599
653748.0496604561797369.54254599653758.0496604561797369.54254599
653768.0496604561797369.54254599653778.0496604561797369.54254599
653788.0496604561797369.54254599653798.0496604561797369.54254599
653808.0496604561797369.54254599653818.0496604561797369.54254599
653108.0496604561797359.54254599653118.0496604561797359.54254599
653128.0496604561797359.54254599653138.0496604561797359.54254599
653148.0496604561797359.54254599653158.0496604561797359.54254599
653168.0496604561797359.54254599653178.0496604561797359.54254599
653188.0496604561797359.54254599653198.0496604561797359.54254599
653208.0496604561797359.54254599653218.0496604561797359.54254599
653228.0496604561797359.54254599653238.0496604561797359.54254599
653248.0496604561797359.54254599653258.0496604561797359.54254599
653268.0496604561797359.54254599653278.0496604561797359.54254599
653288.0496604561797359.54254599653298.0496604561797359.54254599
653308.0496604561797359.54254599653318.0496604561797359.54254599
653328.0496604561797359.54254599653338.0496604561797359.54254599
653348.0496604561797359.54254599653358.0496604561797359.54254599
653368.0496604561797359.54254599653378.0496604561797359.54254599
653388.0496604561797359.54254599653398.0496604561797359.54254599
653408.0496604561797359.54254599653418.0496604561797359.54254599
653428.0496604561797359.54254599653438.0496604561797359.54254599
653448.0496604561797359.54254599653458.0496604561797359.54254599
653468.0496604561797359.54254599653478.0496604561797359.54254599
653488.0496604561797359.54254599653498.0496604561797359.54254599
653508.0496604561797359.54254599653518.0496604561797359.54254599
653528.0496604561797359.54254599653538.0496604561797359.54254599
653548.0496604561797359.54254599653558.0496604561797359.54254599
653568.0496604561797359.54254599653578.0496604561797359.54254599
653588.0496604561797359.54254599653598.0496604561797359.54254599
653608.0496604561797359.54254599653618.0496604561797359.54254599
653628.0496604561797359.54254599653638.0496604561797359.54254599
653648.0496604561797359.54254599653658.0496604561797359.54254599
653668.0496604561797359.54254599653678.0496604561797359.54254599
653688.0496604561797359.54254599653698.0496604561797359.54254599
653708.0496604561797359.54254599653718.0496604561797359.54254599
653728.0496604561797359.54254599653738.0496604561797359.54254599
653748.0496604561797359.54254599653758.0496604561797359.54254599
653768.0496604561797359.54254599653778.0496604561797359.54254599
653788.0496604561797359.54254599653798.0496604561797359.54254599
653808.0496604561797359.54254599653818.0496604561797359.54254599
653108.0496604561797349.54254599653118.0496604561797349.54254599
653128.0496604561797349.54254599653138.0496604561797349.54254599
653148.0496604561797349.54254599653158.0496604561797349.54254599
653168.0496604561797349.54254599653178.0496604561797349.54254599
653188.0496604561797349.54254599653198.0496604561797349.54254599
653208.0496604561797349.54254599653218.0496604561797349.54254599
653228.0496604561797349.54254599653238.0496604561797349.54254599
653248.0496604561797349.54254599653258.0496604561797349.54254599
653268.0496604561797349.54254599653278.0496604561797349.54254599
653288.0496604561797349.54254599653298.0496604561797349.54254599
653308.0496604561797349.54254599653318.0496604561797349.54254599
653328.0496604561797349.54254599653338.0496604561797349.54254599
653348.0496604561797349.54254599653358.0496604561797349.54254599
653368.0496604561797349.54254599653378.0496604561797349.54254599
653388.0496604561797349.54254599653398.0496604561797349.54254599
653408.0496604561797349.54254599653418.0496604561797349.54254599
653428.0496604561797349.54254599653438.0496604561797349.54254599
653448.0496604561797349.54254599653458.0496604561797349.54254599
653468.0496604561797349.54254599653478.0496604561797349.54254599
653488.0496604561797349.54254599653498.0496604561797349.54254599
653508.0496604561797349.54254599653518.0496604561797349.54254599
653528.0496604561797349.54254599653538.0496604561797349.54254599
653548.0496604561797349.54254599653558.0496604561797349.54254599
653568.0496604561797349.54254599653578.0496604561797349.54254599
653588.0496604561797349.54254599653598.0496604561797349.54254599
653608.0496604561797349.54254599653618.0496604561797349.54254599
653628.0496604561797349.54254599653638.0496604561797349.54254599
653648.0496604561797349.54254599653658.0496604561797349.54254599
653668.0496604561797349.54254599653678.0496604561797349.54254599
653688.0496604561797349.54254599653698.0496604561797349.54254599
653708.0496604561797349.54254599653718.0496604561797349.54254599
653728.0496604561797349.54254599653738.0496604561797349.54254599
653748.0496604561797349.54254599653758.0496604561797349.54254599
653768.0496604561797349.54254599653778.0496604561797349.54254599
653788.0496604561797349.54254599653798.0496604561797349.54254599
653808.0496604561797349.54254599653818.0496604561797349.54254599
653828.0496604561797349.54254599653108.0496604561797339.54254599
653118.0496604561797339.54254599653128.0496604561797339.54254599
653138.0496604561797339.54254599653148.0496604561797339.54254599
653158.0496604561797339.54254599653168.0496604561797339.54254599
653178.0496604561797339.54254599653188.0496604561797339.54254599
653198.0496604561797339.54254599653208.0496604561797339.54254599
653218.0496604561797339.54254599653228.0496604561797339.54254599
653238.0496604561797339.54254599653248.0496604561797339.54254599
653258.0496604561797339.54254599653268.0496604561797339.54254599
653278.0496604561797339.54254599653288.0496604561797339.54254599
653298.0496604561797339.54254599653308.0496604561797339.54254599
653318.0496604561797339.54254599653328.0496604561797339.54254599
653338.0496604561797339.54254599653348.0496604561797339.54254599
653358.0496604561797339.54254599653368.0496604561797339.54254599
653378.0496604561797339.54254599653388.0496604561797339.54254599
653398.0496604561797339.54254599653408.0496604561797339.54254599
653418.0496604561797339.54254599653428.0496604561797339.54254599
653438.0496604561797339.54254599653448.0496604561797339.54254599
653458.0496604561797339.54254599653468.0496604561797339.54254599
653478.0496604561797339.54254599653488.0496604561797339.54254599
653498.0496604561797339.54254599653508.0496604561797339.54254599
653518.0496604561797339.54254599653528.0496604561797339.54254599
653538.0496604561797339.54254599653548.0496604561797339.54254599
653558.0496604561797339.54254599653568.0496604561797339.54254599
653578.0496604561797339.54254599653588.0496604561797339.54254599
653598.0496604561797339.54254599653608.0496604561797339.54254599
653618.0496604561797339.54254599653628.0496604561797339.54254599
653638.0496604561797339.54254599653648.0496604561797339.54254599
653658.0496604561797339.54254599653668.0496604561797339.54254599
653678.0496604561797339.54254599653688.0496604561797339.54254599
653698.0496604561797339.54254599653708.0496604561797339.54254599