Geom Title=simple_2D_geometry
Program Version=6.31
Viewing Rectangle= 653179.478489037 , 653638.480756238 , 1797499.10666428 , 1797112.56989969 

Storage Area=Perimeter 1     ,,
Storage Area Surface Line= 5 
653204.178513767 1797219.8459956                
 653499.890320751797219.72312258                
653499.5000094071797130.63683779                
 653203.358257021797130.98806042                
653204.178513767 1797219.8459956                
Storage Area Type= 1 
Storage Area Area=
Storage Area Min Elev=
Storage Area Is2D=-1
Storage Area Point Generation Data=,,4,4
Storage Area 2D Points= 1556 
 653205.35825702 1797217.8459956 653209.35825702 1797217.8459956
 653213.35825702 1797217.8459956 653217.35825702 1797217.8459956
 653221.35825702 1797217.8459956 653225.35825702 1797217.8459956
 653229.35825702 1797217.8459956 653233.35825702 1797217.8459956
 653237.35825702 1797217.8459956 653241.35825702 1797217.8459956
 653245.35825702 1797217.8459956 653249.35825702 1797217.8459956
 653253.35825702 1797217.8459956 653257.35825702 1797217.8459956
 653261.35825702 1797217.8459956 653265.35825702 1797217.8459956
 653269.35825702 1797217.8459956 653273.35825702 1797217.8459956
 653277.35825702 1797217.8459956 653281.35825702 1797217.8459956
 653285.35825702 1797217.8459956 653289.35825702 1797217.8459956
 653293.35825702 1797217.8459956 653297.35825702 1797217.8459956
 653301.35825702 1797217.8459956 653305.35825702 1797217.8459956
 653309.35825702 1797217.8459956 653313.35825702 1797217.8459956
 653317.35825702 1797217.8459956 653321.35825702 1797217.8459956
 653325.35825702 1797217.8459956 653329.35825702 1797217.8459956
 653333.35825702 1797217.8459956 653337.35825702 1797217.8459956
 653341.35825702 1797217.8459956 653345.35825702 1797217.8459956
 653349.35825702 1797217.8459956 653353.35825702 1797217.8459956
 653357.35825702 1797217.8459956 653361.35825702 1797217.8459956
 653365.35825702 1797217.8459956 653369.35825702 1797217.8459956
 653373.35825702 1797217.8459956 653377.35825702 1797217.8459956
 653381.35825702 1797217.8459956 653385.35825702 1797217.8459956
 653389.35825702 1797217.8459956 653393.35825702 1797217.8459956
 653397.35825702 1797217.8459956 653401.35825702 1797217.8459956
 653405.35825702 1797217.8459956 653409.35825702 1797217.8459956
 653413.35825702 1797217.8459956 653417.35825702 1797217.8459956
 653421.35825702 1797217.8459956 653425.35825702 1797217.8459956
 653429.35825702 1797217.8459956 653433.35825702 1797217.8459956
 653437.35825702 1797217.8459956 653441.35825702 1797217.8459956
 653445.35825702 1797217.8459956 653449.35825702 1797217.8459956
 653453.35825702 1797217.8459956 653457.35825702 1797217.8459956
 653461.35825702 1797217.8459956 653465.35825702 1797217.8459956
 653469.35825702 1797217.8459956 653473.35825702 1797217.8459956
 653477.35825702 1797217.8459956 653481.35825702 1797217.8459956
 653485.35825702 1797217.8459956 653489.35825702 1797217.8459956
 653493.35825702 1797217.8459956 653497.35825702 1797217.8459956
 653205.35825702 1797213.8459956 653209.35825702 1797213.8459956
 653213.35825702 1797213.8459956 653217.35825702 1797213.8459956
 653221.35825702 1797213.8459956 653225.35825702 1797213.8459956
 653229.35825702 1797213.8459956 653233.35825702 1797213.8459956
 653237.35825702 1797213.8459956 653241.35825702 1797213.8459956
 653245.35825702 1797213.8459956 653249.35825702 1797213.8459956
 653253.35825702 1797213.8459956 653257.35825702 1797213.8459956
 653261.35825702 1797213.8459956 653265.35825702 1797213.8459956
 653269.35825702 1797213.8459956 653273.35825702 1797213.8459956
 653277.35825702 1797213.8459956 653281.35825702 1797213.8459956
 653285.35825702 1797213.8459956 653289.35825702 1797213.8459956
 653293.35825702 1797213.8459956 653297.35825702 1797213.8459956
 653301.35825702 1797213.8459956 653305.35825702 1797213.8459956
 653309.35825702 1797213.8459956 653313.35825702 1797213.8459956
 653317.35825702 1797213.8459956 653321.35825702 1797213.8459956
 653325.35825702 1797213.8459956 653329.35825702 1797213.8459956
 653333.35825702 1797213.8459956 653337.35825702 1797213.8459956
 653341.35825702 1797213.8459956 653345.35825702 1797213.8459956
 653349.35825702 1797213.8459956 653353.35825702 1797213.8459956
 653357.35825702 1797213.8459956 653361.35825702 1797213.8459956
 653365.35825702 1797213.8459956 653369.35825702 1797213.8459956
 653373.35825702 1797213.8459956 653377.35825702 1797213.8459956
 653381.35825702 1797213.8459956 653385.35825702 1797213.8459956
 653389.35825702 1797213.8459956 653393.35825702 1797213.8459956
 653397.35825702 1797213.8459956 653401.35825702 1797213.8459956
 653405.35825702 1797213.8459956 653409.35825702 1797213.8459956
 653413.35825702 1797213.8459956 653417.35825702 1797213.8459956
 653421.35825702 1797213.8459956 653425.35825702 1797213.8459956
 653429.35825702 1797213.8459956 653433.35825702 1797213.8459956
 653437.35825702 1797213.8459956 653441.35825702 1797213.8459956
 653445.35825702 1797213.8459956 653449.35825702 1797213.8459956
 653453.35825702 1797213.8459956 653457.35825702 1797213.8459956
 653461.35825702 1797213.8459956 653465.35825702 1797213.8459956
 653469.35825702 1797213.8459956 653473.35825702 1797213.8459956
 653477.35825702 1797213.8459956 653481.35825702 1797213.8459956
 653485.35825702 1797213.8459956 653489.35825702 1797213.8459956
 653493.35825702 1797213.8459956 653497.35825702 1797213.8459956
 653205.35825702 1797209.8459956 653209.35825702 1797209.8459956
 653213.35825702 1797209.8459956 653217.35825702 1797209.8459956
 653221.35825702 1797209.8459956 653225.35825702 1797209.8459956
 653229.35825702 1797209.8459956 653233.35825702 1797209.8459956
 653237.35825702 1797209.8459956 653241.35825702 1797209.8459956
 653245.35825702 1797209.8459956 653249.35825702 1797209.8459956
 653253.35825702 1797209.8459956 653257.35825702 1797209.8459956
 653261.35825702 1797209.8459956 653265.35825702 1797209.8459956
 653269.35825702 1797209.8459956 653273.35825702 1797209.8459956
 653277.35825702 1797209.8459956 653281.35825702 1797209.8459956
 653285.35825702 1797209.8459956 653289.35825702 1797209.8459956
 653293.35825702 1797209.8459956 653297.35825702 1797209.8459956
 653301.35825702 1797209.8459956 653305.35825702 1797209.8459956
 653309.35825702 1797209.8459956 653313.35825702 1797209.8459956
 653317.35825702 1797209.8459956 653321.35825702 1797209.8459956
 653325.35825702 1797209.8459956 653329.35825702 1797209.8459956
 653333.35825702 1797209.8459956 653337.35825702 1797209.8459956
 653341.35825702 1797209.8459956 653345.35825702 1797209.8459956
 653349.35825702 1797209.8459956 653353.35825702 1797209.8459956
 653357.35825702 1797209.8459956 653361.35825702 1797209.8459956
 653365.35825702 1797209.8459956 653369.35825702 1797209.8459956
 653373.35825702 1797209.8459956 653377.35825702 1797209.8459956
 653381.35825702 1797209.8459956 653385.35825702 1797209.8459956
 653389.35825702 1797209.8459956 653393.35825702 1797209.8459956
 653397.35825702 1797209.8459956 653401.35825702 1797209.8459956
 653405.35825702 1797209.8459956 653409.35825702 1797209.8459956
 653413.35825702 1797209.8459956 653417.35825702 1797209.8459956
 653421.35825702 1797209.8459956 653425.35825702 1797209.8459956
 653429.35825702 1797209.8459956 653433.35825702 1797209.8459956
 653437.35825702 1797209.8459956 653441.35825702 1797209.8459956
 653445.35825702 1797209.8459956 653449.35825702 1797209.8459956
 653453.35825702 1797209.8459956 653457.35825702 1797209.8459956
 653461.35825702 1797209.8459956 653465.35825702 1797209.8459956
 653469.35825702 1797209.8459956 653473.35825702 1797209.8459956
 653477.35825702 1797209.8459956 653481.35825702 1797209.8459956
 653485.35825702 1797209.8459956 653489.35825702 1797209.8459956
 653493.35825702 1797209.8459956 653497.35825702 1797209.8459956
 653205.35825702 1797205.8459956 653209.35825702 1797205.8459956
 653213.35825702 1797205.8459956 653217.35825702 1797205.8459956
 653221.35825702 1797205.8459956 653225.35825702 1797205.8459956
 653229.35825702 1797205.8459956 653233.35825702 1797205.8459956
 653237.35825702 1797205.8459956 653241.35825702 1797205.8459956
 653245.35825702 1797205.8459956 653249.35825702 1797205.8459956
 653253.35825702 1797205.8459956 653257.35825702 1797205.8459956
 653261.35825702 1797205.8459956 653265.35825702 1797205.8459956
 653269.35825702 1797205.8459956 653273.35825702 1797205.8459956
 653277.35825702 1797205.8459956 653281.35825702 1797205.8459956
 653285.35825702 1797205.8459956 653289.35825702 1797205.8459956
 653293.35825702 1797205.8459956 653297.35825702 1797205.8459956
 653301.35825702 1797205.8459956 653305.35825702 1797205.8459956
 653309.35825702 1797205.8459956 653313.35825702 1797205.8459956
 653317.35825702 1797205.8459956 653321.35825702 1797205.8459956
 653325.35825702 1797205.8459956 653329.35825702 1797205.8459956
 653333.35825702 1797205.8459956 653337.35825702 1797205.8459956
 653341.35825702 1797205.8459956 653345.35825702 1797205.8459956
 653349.35825702 1797205.8459956 653353.35825702 1797205.8459956
 653357.35825702 1797205.8459956 653361.35825702 1797205.8459956
 653365.35825702 1797205.8459956 653369.35825702 1797205.8459956
 653373.35825702 1797205.8459956 653377.35825702 1797205.8459956
 653381.35825702 1797205.8459956 653385.35825702 1797205.8459956
 653389.35825702 1797205.8459956 653393.35825702 1797205.8459956
 653397.35825702 1797205.8459956 653401.35825702 1797205.8459956
 653405.35825702 1797205.8459956 653409.35825702 1797205.8459956
 653413.35825702 1797205.8459956 653417.35825702 1797205.8459956
 653421.35825702 1797205.8459956 653425.35825702 1797205.8459956
 653429.35825702 1797205.8459956 653433.35825702 1797205.8459956
 653437.35825702 1797205.8459956 653441.35825702 1797205.8459956
 653445.35825702 1797205.8459956 653449.35825702 1797205.8459956
 653453.35825702 1797205.8459956 653457.35825702 1797205.8459956
 653461.35825702 1797205.8459956 653465.35825702 1797205.8459956
 653469.35825702 1797205.8459956 653473.35825702 1797205.8459956
 653477.35825702 1797205.8459956 653481.35825702 1797205.8459956
 653485.35825702 1797205.8459956 653489.35825702 1797205.8459956
 653493.35825702 1797205.8459956 653497.35825702 1797205.8459956
 653205.35825702 1797193.8459956 653209.35825702 1797193.8459956
 653213.35825702 1797193.8459956 653217.35825702 1797193.8459956
 653221.35825702 1797193.8459956 653225.35825702 1797193.8459956
 653229.35825702 1797193.8459956 653233.35825702 1797193.8459956
 653237.35825702 1797193.8459956 653241.35825702 1797193.8459956
 653245.35825702 1797193.8459956 653249.35825702 1797193.8459956
 653253.35825702 1797193.8459956 653257.35825702 1797193.8459956
 653261.35825702 1797193.8459956 653265.35825702 1797193.8459956
 653269.35825702 1797193.8459956 653273.35825702 1797193.8459956
 653277.35825702 1797193.8459956 653281.35825702 1797193.8459956
 653285.35825702 1797193.8459956 653289.35825702 1797193.8459956
 653293.35825702 1797193.8459956 653297.35825702 1797193.8459956
 653301.35825702 1797193.8459956 653305.35825702 1797193.8459956
 653309.35825702 1797193.8459956 653313.35825702 1797193.8459956
 653317.35825702 1797193.8459956 653321.35825702 1797193.8459956
 653325.35825702 1797193.8459956 653329.35825702 1797193.8459956
 653333.35825702 1797193.8459956 653337.35825702 1797193.8459956
 653341.35825702 1797193.8459956 653345.35825702 1797193.8459956
 653349.35825702 1797193.8459956 653353.35825702 1797193.8459956
 653357.35825702 1797193.8459956 653361.35825702 1797193.8459956
 653365.35825702 1797193.8459956 653369.35825702 1797193.8459956
 653373.35825702 1797193.8459956 653377.35825702 1797193.8459956
 653381.35825702 1797193.8459956 653385.35825702 1797193.8459956
 653389.35825702 1797193.8459956 653393.35825702 1797193.8459956
 653397.35825702 1797193.8459956 653401.35825702 1797193.8459956
 653405.35825702 1797193.8459956 653409.35825702 1797193.8459956
 653413.35825702 1797193.8459956 653417.35825702 1797193.8459956
 653421.35825702 1797193.8459956 653425.35825702 1797193.8459956
 653429.35825702 1797193.8459956 653433.35825702 1797193.8459956
 653437.35825702 1797193.8459956 653441.35825702 1797193.8459956
 653445.35825702 1797193.8459956 653449.35825702 1797193.8459956
 653453.35825702 1797193.8459956 653457.35825702 1797193.8459956
 653461.35825702 1797193.8459956 653465.35825702 1797193.8459956
 653469.35825702 1797193.8459956 653473.35825702 1797193.8459956
 653477.35825702 1797193.8459956 653481.35825702 1797193.8459956
 653485.35825702 1797193.8459956 653489.35825702 1797193.8459956
 653493.35825702 1797193.8459956 653497.35825702 1797193.8459956
 653205.35825702 1797189.8459956 653209.35825702 1797189.8459956
 653213.35825702 1797189.8459956 653217.35825702 1797189.8459956
 653221.35825702 1797189.8459956 653225.35825702 1797189.8459956
 653229.35825702 1797189.8459956 653233.35825702 1797189.8459956
 653237.35825702 1797189.8459956 653241.35825702 1797189.8459956
 653245.35825702 1797189.8459956 653249.35825702 1797189.8459956
 653253.35825702 1797189.8459956 653257.35825702 1797189.8459956
 653261.35825702 1797189.8459956 653265.35825702 1797189.8459956
 653269.35825702 1797189.8459956 653273.35825702 1797189.8459956
 653277.35825702 1797189.8459956 653281.35825702 1797189.8459956
 653285.35825702 1797189.8459956 653289.35825702 1797189.8459956
 653293.35825702 1797189.8459956 653297.35825702 1797189.8459956
 653301.35825702 1797189.8459956 653305.35825702 1797189.8459956
 653309.35825702 1797189.8459956 653313.35825702 1797189.8459956
 653317.35825702 1797189.8459956 653321.35825702 1797189.8459956
 653325.35825702 1797189.8459956 653329.35825702 1797189.8459956
 653333.35825702 1797189.8459956 653337.35825702 1797189.8459956
 653341.35825702 1797189.8459956 653345.35825702 1797189.8459956
 653349.35825702 1797189.8459956 653353.35825702 1797189.8459956
 653357.35825702 1797189.8459956 653361.35825702 1797189.8459956
 653365.35825702 1797189.8459956 653369.35825702 1797189.8459956
 653373.35825702 1797189.8459956 653377.35825702 1797189.8459956
 653381.35825702 1797189.8459956 653385.35825702 1797189.8459956
 653389.35825702 1797189.8459956 653393.35825702 1797189.8459956
 653397.35825702 1797189.8459956 653401.35825702 1797189.8459956
 653405.35825702 1797189.8459956 653409.35825702 1797189.8459956
 653413.35825702 1797189.8459956 653417.35825702 1797189.8459956
 653421.35825702 1797189.8459956 653425.35825702 1797189.8459956
 653429.35825702 1797189.8459956 653433.35825702 1797189.8459956
 653437.35825702 1797189.8459956 653441.35825702 1797189.8459956
 653445.35825702 1797189.8459956 653449.35825702 1797189.8459956
 653453.35825702 1797189.8459956 653457.35825702 1797189.8459956
 653461.35825702 1797189.8459956 653465.35825702 1797189.8459956
 653469.35825702 1797189.8459956 653473.35825702 1797189.8459956
 653477.35825702 1797189.8459956 653481.35825702 1797189.8459956
 653485.35825702 1797189.8459956 653489.35825702 1797189.8459956
 653493.35825702 1797189.8459956 653497.35825702 1797189.8459956
 653205.35825702 1797185.8459956 653209.35825702 1797185.8459956
 653213.35825702 1797185.8459956 653217.35825702 1797185.8459956
 653221.35825702 1797185.8459956 653225.35825702 1797185.8459956
 653229.35825702 1797185.8459956 653233.35825702 1797185.8459956
 653237.35825702 1797185.8459956 653241.35825702 1797185.8459956
 653245.35825702 1797185.8459956 653249.35825702 1797185.8459956
 653253.35825702 1797185.8459956 653257.35825702 1797185.8459956
 653261.35825702 1797185.8459956 653265.35825702 1797185.8459956
 653269.35825702 1797185.8459956 653273.35825702 1797185.8459956
 653277.35825702 1797185.8459956 653281.35825702 1797185.8459956
 653285.35825702 1797185.8459956 653289.35825702 1797185.8459956
 653293.35825702 1797185.8459956 653297.35825702 1797185.8459956
 653301.35825702 1797185.8459956 653305.35825702 1797185.8459956
 653309.35825702 1797185.8459956 653313.35825702 1797185.8459956
 653317.35825702 1797185.8459956 653321.35825702 1797185.8459956
 653325.35825702 1797185.8459956 653329.35825702 1797185.8459956
 653333.35825702 1797185.8459956 653337.35825702 1797185.8459956
 653341.35825702 1797185.8459956 653345.35825702 1797185.8459956
 653349.35825702 1797185.8459956 653353.35825702 1797185.8459956
 653357.35825702 1797185.8459956 653361.35825702 1797185.8459956
 653365.35825702 1797185.8459956 653369.35825702 1797185.8459956
 653373.35825702 1797185.8459956 653377.35825702 1797185.8459956
 653381.35825702 1797185.8459956 653385.35825702 1797185.8459956
 653389.35825702 1797185.8459956 653393.35825702 1797185.8459956
 653397.35825702 1797185.8459956 653401.35825702 1797185.8459956
 653405.35825702 1797185.8459956 653409.35825702 1797185.8459956
 653413.35825702 1797185.8459956 653417.35825702 1797185.8459956
 653421.35825702 1797185.8459956 653425.35825702 1797185.8459956
 653429.35825702 1797185.8459956 653433.35825702 1797185.8459956
 653437.35825702 1797185.8459956 653441.35825702 1797185.8459956
 653445.35825702 1797185.8459956 653449.35825702 1797185.8459956
 653453.35825702 1797185.8459956 653457.35825702 1797185.8459956
 653461.35825702 1797185.8459956 653465.35825702 1797185.8459956
 653469.35825702 1797185.8459956 653473.35825702 1797185.8459956
 653477.35825702 1797185.8459956 653481.35825702 1797185.8459956
 653485.35825702 1797185.8459956 653489.35825702 1797185.8459956
 653493.35825702 1797185.8459956 653497.35825702 1797185.8459956
 653205.35825702 1797181.8459956 653209.35825702 1797181.8459956
 653213.35825702 1797181.8459956 653217.35825702 1797181.8459956
 653221.35825702 1797181.8459956 653225.35825702 1797181.8459956
 653229.35825702 1797181.8459956 653233.35825702 1797181.8459956
 653237.35825702 1797181.8459956 653241.35825702 1797181.8459956
 653245.35825702 1797181.8459956 653249.35825702 1797181.8459956
 653253.35825702 1797181.8459956 653257.35825702 1797181.8459956
 653261.35825702 1797181.8459956 653265.35825702 1797181.8459956
 653269.35825702 1797181.8459956 653273.35825702 1797181.8459956
 653277.35825702 1797181.8459956 653281.35825702 1797181.8459956
 653285.35825702 1797181.8459956 653289.35825702 1797181.8459956
 653293.35825702 1797181.8459956 653297.35825702 1797181.8459956
 653301.35825702 1797181.8459956 653305.35825702 1797181.8459956
 653309.35825702 1797181.8459956 653313.35825702 1797181.8459956
 653317.35825702 1797181.8459956 653321.35825702 1797181.8459956
 653325.35825702 1797181.8459956 653329.35825702 1797181.8459956
 653333.35825702 1797181.8459956 653337.35825702 1797181.8459956
 653341.35825702 1797181.8459956 653345.35825702 1797181.8459956
 653349.35825702 1797181.8459956 653353.35825702 1797181.8459956
 653357.35825702 1797181.8459956 653361.35825702 1797181.8459956
 653365.35825702 1797181.8459956 653369.35825702 1797181.8459956
 653373.35825702 1797181.8459956 653377.35825702 1797181.8459956
 653381.35825702 1797181.8459956 653385.35825702 1797181.8459956
 653389.35825702 1797181.8459956 653393.35825702 1797181.8459956
 653397.35825702 1797181.8459956 653401.35825702 1797181.8459956
 653405.35825702 1797181.8459956 653409.35825702 1797181.8459956
 653413.35825702 1797181.8459956 653417.35825702 1797181.8459956
 653421.35825702 1797181.8459956 653425.35825702 1797181.8459956
 653429.35825702 1797181.8459956 653433.35825702 1797181.8459956
 653437.35825702 1797181.8459956 653441.35825702 1797181.8459956
 653445.35825702 1797181.8459956 653449.35825702 1797181.8459956
 653453.35825702 1797181.8459956 653457.35825702 1797181.8459956
 653461.35825702 1797181.8459956 653465.35825702 1797181.8459956
 653469.35825702 1797181.8459956 653473.35825702 1797181.8459956
 653477.35825702 1797181.8459956 653481.35825702 1797181.8459956
 653485.35825702 1797181.8459956 653489.35825702 1797181.8459956
 653493.35825702 1797181.8459956 653497.35825702 1797181.8459956
 653205.35825702 1797177.8459956 653209.35825702 1797177.8459956
 653213.35825702 1797177.8459956 653217.35825702 1797177.8459956
 653221.35825702 1797177.8459956 653225.35825702 1797177.8459956
 653229.35825702 1797177.8459956 653233.35825702 1797177.8459956
 653237.35825702 1797177.8459956 653241.35825702 1797177.8459956
 653245.35825702 1797177.8459956 653249.35825702 1797177.8459956
 653253.35825702 1797177.8459956 653257.35825702 1797177.8459956
 653261.35825702 1797177.8459956 653265.35825702 1797177.8459956
 653269.35825702 1797177.8459956 653273.35825702 1797177.8459956
 653277.35825702 1797177.8459956 653281.35825702 1797177.8459956
 653285.35825702 1797177.8459956 653289.35825702 1797177.8459956
 653293.35825702 1797177.8459956 653297.35825702 1797177.8459956
 653301.35825702 1797177.8459956 653305.35825702 1797177.8459956
 653309.35825702 1797177.8459956 653313.35825702 1797177.8459956
 653317.35825702 1797177.8459956 653321.35825702 1797177.8459956
 653325.35825702 1797177.8459956 653329.35825702 1797177.8459956
 653333.35825702 1797177.8459956 653337.35825702 1797177.8459956
 653341.35825702 1797177.8459956 653345.35825702 1797177.8459956
 653349.35825702 1797177.8459956 653353.35825702 1797177.8459956
 653357.35825702 1797177.8459956 653361.35825702 1797177.8459956
 653365.35825702 1797177.8459956 653369.35825702 1797177.8459956
 653373.35825702 1797177.8459956 653377.35825702 1797177.8459956
 653381.35825702 1797177.8459956 653385.35825702 1797177.8459956
 653389.35825702 1797177.8459956 653393.35825702 1797177.8459956
 653397.35825702 1797177.8459956 653401.35825702 1797177.8459956
 653405.35825702 1797177.8459956 653409.35825702 1797177.8459956
 653413.35825702 1797177.8459956 653417.35825702 1797177.8459956
 653421.35825702 1797177.8459956 653425.35825702 1797177.8459956
 653429.35825702 1797177.8459956 653433.35825702 1797177.8459956
 653437.35825702 1797177.8459956 653441.35825702 1797177.8459956
 653445.35825702 1797177.8459956 653449.35825702 1797177.8459956
 653453.35825702 1797177.8459956 653457.35825702 1797177.8459956
 653461.35825702 1797177.8459956 653465.35825702 1797177.8459956
 653469.35825702 1797177.8459956 653473.35825702 1797177.8459956
 653477.35825702 1797177.8459956 653481.35825702 1797177.8459956
 653485.35825702 1797177.8459956 653489.35825702 1797177.8459956
 653493.35825702 1797177.8459956 653497.35825702 1797177.8459956
 653205.35825702 1797173.8459956 653209.35825702 1797173.8459956
 653213.35825702 1797173.8459956 653217.35825702 1797173.8459956
 653221.35825702 1797173.8459956 653225.35825702 1797173.8459956
 653229.35825702 1797173.8459956 653233.35825702 1797173.8459956
 653237.35825702 1797173.8459956 653241.35825702 1797173.8459956
 653245.35825702 1797173.8459956 653249.35825702 1797173.8459956
 653253.35825702 1797173.8459956 653257.35825702 1797173.8459956
 653261.35825702 1797173.8459956 653265.35825702 1797173.8459956
 653269.35825702 1797173.8459956 653273.35825702 1797173.8459956
 653277.35825702 1797173.8459956 653281.35825702 1797173.8459956
 653285.35825702 1797173.8459956 653289.35825702 1797173.8459956
 653293.35825702 1797173.8459956 653297.35825702 1797173.8459956
 653301.35825702 1797173.8459956 653305.35825702 1797173.8459956
 653309.35825702 1797173.8459956 653313.35825702 1797173.8459956
 653317.35825702 1797173.8459956 653321.35825702 1797173.8459956
 653325.35825702 1797173.8459956 653329.35825702 1797173.8459956
 653333.35825702 1797173.8459956 653337.35825702 1797173.8459956
 653341.35825702 1797173.8459956 653345.35825702 1797173.8459956
 653349.35825702 1797173.8459956 653353.35825702 1797173.8459956
 653357.35825702 1797173.8459956 653361.35825702 1797173.8459956
 653365.35825702 1797173.8459956 653369.35825702 1797173.8459956
 653373.35825702 1797173.8459956 653377.35825702 1797173.8459956
 653381.35825702 1797173.8459956 653385.35825702 1797173.8459956
 653389.35825702 1797173.8459956 653393.35825702 1797173.8459956
 653397.35825702 1797173.8459956 653401.35825702 1797173.8459956
 653405.35825702 1797173.8459956 653409.35825702 1797173.8459956
 653413.35825702 1797173.8459956 653417.35825702 1797173.8459956
 653421.35825702 1797173.8459956 653425.35825702 1797173.8459956
 653429.35825702 1797173.8459956 653433.35825702 1797173.8459956
 653437.35825702 1797173.8459956 653441.35825702 1797173.8459956
 653445.35825702 1797173.8459956 653449.35825702 1797173.8459956
 653453.35825702 1797173.8459956 653457.35825702 1797173.8459956
 653461.35825702 1797173.8459956 653465.35825702 1797173.8459956
 653469.35825702 1797173.8459956 653473.35825702 1797173.8459956
 653477.35825702 1797173.8459956 653481.35825702 1797173.8459956
 653485.35825702 1797173.8459956 653489.35825702 1797173.8459956
 653493.35825702 1797173.8459956 653497.35825702 1797173.8459956
 653205.35825702 1797169.8459956 653209.35825702 1797169.8459956
 653213.35825702 1797169.8459956 653217.35825702 1797169.8459956
 653221.35825702 1797169.8459956 653225.35825702 1797169.8459956
 653229.35825702 1797169.8459956 653233.35825702 1797169.8459956
 653237.35825702 1797169.8459956 653241.35825702 1797169.8459956
 653245.35825702 1797169.8459956 653249.35825702 1797169.8459956
 653253.35825702 1797169.8459956 653257.35825702 1797169.8459956
 653261.35825702 1797169.8459956 653265.35825702 1797169.8459956
 653269.35825702 1797169.8459956 653273.35825702 1797169.8459956
 653277.35825702 1797169.8459956 653281.35825702 1797169.8459956
 653285.35825702 1797169.8459956 653289.35825702 1797169.8459956
 653293.35825702 1797169.8459956 653297.35825702 1797169.8459956
 653301.35825702 1797169.8459956 653305.35825702 1797169.8459956
 653309.35825702 1797169.8459956 653313.35825702 1797169.8459956
 653317.35825702 1797169.8459956 653321.35825702 1797169.8459956
 653325.35825702 1797169.8459956 653329.35825702 1797169.8459956
 653333.35825702 1797169.8459956 653337.35825702 1797169.8459956
 653341.35825702 1797169.8459956 653345.35825702 1797169.8459956
 653349.35825702 1797169.8459956 653353.35825702 1797169.8459956
 653357.35825702 1797169.8459956 653361.35825702 1797169.8459956
 653365.35825702 1797169.8459956 653369.35825702 1797169.8459956
 653373.35825702 1797169.8459956 653377.35825702 1797169.8459956
 653381.35825702 1797169.8459956 653385.35825702 1797169.8459956
 653389.35825702 1797169.8459956 653393.35825702 1797169.8459956
 653397.35825702 1797169.8459956 653401.35825702 1797169.8459956
 653405.35825702 1797169.8459956 653409.35825702 1797169.8459956
 653413.35825702 1797169.8459956 653417.35825702 1797169.8459956
 653421.35825702 1797169.8459956 653425.35825702 1797169.8459956
 653429.35825702 1797169.8459956 653433.35825702 1797169.8459956
 653437.35825702 1797169.8459956 653441.35825702 1797169.8459956
 653445.35825702 1797169.8459956 653449.35825702 1797169.8459956
 653453.35825702 1797169.8459956 653457.35825702 1797169.8459956
 653461.35825702 1797169.8459956 653465.35825702 1797169.8459956
 653469.35825702 1797169.8459956 653473.35825702 1797169.8459956
 653477.35825702 1797169.8459956 653481.35825702 1797169.8459956
 653485.35825702 1797169.8459956 653489.35825702 1797169.8459956
 653493.35825702 1797169.8459956 653497.35825702 1797169.8459956
 653205.35825702 1797165.8459956 653209.35825702 1797165.8459956
 653213.35825702 1797165.8459956 653217.35825702 1797165.8459956
 653221.35825702 1797165.8459956 653225.35825702 1797165.8459956
 653229.35825702 1797165.8459956 653233.35825702 1797165.8459956
 653237.35825702 1797165.8459956 653241.35825702 1797165.8459956
 653245.35825702 1797165.8459956 653249.35825702 1797165.8459956
 653253.35825702 1797165.8459956 653257.35825702 1797165.8459956
 653261.35825702 1797165.8459956 653265.35825702 1797165.8459956
 653269.35825702 1797165.8459956 653273.35825702 1797165.8459956
 653277.35825702 1797165.8459956 653281.35825702 1797165.8459956
 653285.35825702 1797165.8459956 653289.35825702 1797165.8459956
 653293.35825702 1797165.8459956 653297.35825702 1797165.8459956
 653301.35825702 1797165.8459956 653305.35825702 1797165.8459956
 653309.35825702 1797165.8459956 653313.35825702 1797165.8459956
 653317.35825702 1797165.8459956 653321.35825702 1797165.8459956
 653325.35825702 1797165.8459956 653329.35825702 1797165.8459956
 653333.35825702 1797165.8459956 653337.35825702 1797165.8459956
 653341.35825702 1797165.8459956 653345.35825702 1797165.8459956
 653349.35825702 1797165.8459956 653353.35825702 1797165.8459956
 653357.35825702 1797165.8459956 653361.35825702 1797165.8459956
 653365.35825702 1797165.8459956 653369.35825702 1797165.8459956
 653373.35825702 1797165.8459956 653377.35825702 1797165.8459956
 653381.35825702 1797165.8459956 653385.35825702 1797165.8459956
 653389.35825702 1797165.8459956 653393.35825702 1797165.8459956
 653397.35825702 1797165.8459956 653401.35825702 1797165.8459956
 653405.35825702 1797165.8459956 653409.35825702 1797165.8459956
 653413.35825702 1797165.8459956 653417.35825702 1797165.8459956
 653421.35825702 1797165.8459956 653425.35825702 1797165.8459956
 653429.35825702 1797165.8459956 653433.35825702 1797165.8459956
 653437.35825702 1797165.8459956 653441.35825702 1797165.8459956
 653445.35825702 1797165.8459956 653449.35825702 1797165.8459956
 653453.35825702 1797165.8459956 653457.35825702 1797165.8459956
 653461.35825702 1797165.8459956 653465.35825702 1797165.8459956
 653469.35825702 1797165.8459956 653473.35825702 1797165.8459956
 653477.35825702 1797165.8459956 653481.35825702 1797165.8459956
 653485.35825702 1797165.8459956 653489.35825702 1797165.8459956
 653493.35825702 1797165.8459956 653497.35825702 1797165.8459956
 653205.35825702 1797161.8459956 653209.35825702 1797161.8459956
 653213.35825702 1797161.8459956 653217.35825702 1797161.8459956
 653221.35825702 1797161.8459956 653225.35825702 1797161.8459956
 653229.35825702 1797161.8459956 653233.35825702 1797161.8459956
 653237.35825702 1797161.8459956 653241.35825702 1797161.8459956
 653245.35825702 1797161.8459956 653249.35825702 1797161.8459956
 653253.35825702 1797161.8459956 653257.35825702 1797161.8459956
 653261.35825702 1797161.8459956 653265.35825702 1797161.8459956