Geom Title=simle_2D_geometry
Program Version=6.31
Viewing Rectangle= 653179.478489037 , 653638.480756238 , 1797499.10666428 , 1797112.56989969 

Storage Area=Perimeter 1     ,,
Storage Area Surface Line= 5 
 653201.102198911797130.38180678                
653200.3422284551797219.94512185                
 653499.890320751797219.72312258                
653499.5946922941797130.13975263                
 653201.102198911797130.38180678                
Storage Area Type= 1 
Storage Area Area=
Storage Area Min Elev=
Storage Area Is2D=-1
Storage Area Point Generation Data=,,4,4
Storage Area 2D Points= 1577 
653202.3422284551797217.94512185653206.3422284551797217.94512185
653210.3422284551797217.94512185653214.3422284551797217.94512185
653218.3422284551797217.94512185653222.3422284551797217.94512185
653226.3422284551797217.94512185653230.3422284551797217.94512185
653234.3422284551797217.94512185653238.3422284551797217.94512185
653242.3422284551797217.94512185653246.3422284551797217.94512185
653250.3422284551797217.94512185653254.3422284551797217.94512185
653258.3422284551797217.94512185653262.3422284551797217.94512185
653266.3422284551797217.94512185653270.3422284551797217.94512185
653274.3422284551797217.94512185653278.3422284551797217.94512185
653282.3422284551797217.94512185653286.3422284551797217.94512185
653290.3422284551797217.94512185653294.3422284551797217.94512185
653298.3422284551797217.94512185653302.3422284551797217.94512185
653306.3422284551797217.94512185653310.3422284551797217.94512185
653314.3422284551797217.94512185653318.3422284551797217.94512185
653322.3422284551797217.94512185653326.3422284551797217.94512185
653330.3422284551797217.94512185653334.3422284551797217.94512185
653338.3422284551797217.94512185653342.3422284551797217.94512185
653346.3422284551797217.94512185653350.3422284551797217.94512185
653354.3422284551797217.94512185653358.3422284551797217.94512185
653362.3422284551797217.94512185653366.3422284551797217.94512185
653370.3422284551797217.94512185653374.3422284551797217.94512185
653378.3422284551797217.94512185653382.3422284551797217.94512185
653386.3422284551797217.94512185653390.3422284551797217.94512185
653394.3422284551797217.94512185653398.3422284551797217.94512185
653402.3422284551797217.94512185653406.3422284551797217.94512185
653410.3422284551797217.94512185653414.3422284551797217.94512185
653418.3422284551797217.94512185653422.3422284551797217.94512185
653426.3422284551797217.94512185653430.3422284551797217.94512185
653434.3422284551797217.94512185653438.3422284551797217.94512185
653442.3422284551797217.94512185653446.3422284551797217.94512185
653450.3422284551797217.94512185653454.3422284551797217.94512185
653458.3422284551797217.94512185653462.3422284551797217.94512185
653466.3422284551797217.94512185653470.3422284551797217.94512185
653474.3422284551797217.94512185653478.3422284551797217.94512185
653482.3422284551797217.94512185653486.3422284551797217.94512185
653490.3422284551797217.94512185653494.3422284551797217.94512185
653498.3422284551797217.94512185653202.3422284551797213.94512185
653206.3422284551797213.94512185653210.3422284551797213.94512185
653214.3422284551797213.94512185653218.3422284551797213.94512185
653222.3422284551797213.94512185653226.3422284551797213.94512185
653230.3422284551797213.94512185653234.3422284551797213.94512185
653238.3422284551797213.94512185653242.3422284551797213.94512185
653246.3422284551797213.94512185653250.3422284551797213.94512185
653254.3422284551797213.94512185653258.3422284551797213.94512185
653262.3422284551797213.94512185653266.3422284551797213.94512185
653270.3422284551797213.94512185653274.3422284551797213.94512185
653278.3422284551797213.94512185653282.3422284551797213.94512185
653286.3422284551797213.94512185653290.3422284551797213.94512185
653294.3422284551797213.94512185653298.3422284551797213.94512185
653302.3422284551797213.94512185653306.3422284551797213.94512185
653310.3422284551797213.94512185653314.3422284551797213.94512185
653318.3422284551797213.94512185653322.3422284551797213.94512185
653326.3422284551797213.94512185653330.3422284551797213.94512185
653334.3422284551797213.94512185653338.3422284551797213.94512185
653342.3422284551797213.94512185653346.3422284551797213.94512185
653350.3422284551797213.94512185653354.3422284551797213.94512185
653358.3422284551797213.94512185653362.3422284551797213.94512185
653366.3422284551797213.94512185653370.3422284551797213.94512185
653374.3422284551797213.94512185653378.3422284551797213.94512185
653382.3422284551797213.94512185653386.3422284551797213.94512185
653390.3422284551797213.94512185653394.3422284551797213.94512185
653398.3422284551797213.94512185653402.3422284551797213.94512185
653406.3422284551797213.94512185653410.3422284551797213.94512185
653414.3422284551797213.94512185653418.3422284551797213.94512185
653422.3422284551797213.94512185653426.3422284551797213.94512185
653430.3422284551797213.94512185653434.3422284551797213.94512185
653438.3422284551797213.94512185653442.3422284551797213.94512185
653446.3422284551797213.94512185653450.3422284551797213.94512185
653454.3422284551797213.94512185653458.3422284551797213.94512185
653462.3422284551797213.94512185653466.3422284551797213.94512185
653470.3422284551797213.94512185653474.3422284551797213.94512185
653478.3422284551797213.94512185653482.3422284551797213.94512185
653486.3422284551797213.94512185653490.3422284551797213.94512185
653494.3422284551797213.94512185653498.3422284551797213.94512185
653202.3422284551797209.94512185653206.3422284551797209.94512185
653210.3422284551797209.94512185653214.3422284551797209.94512185
653218.3422284551797209.94512185653222.3422284551797209.94512185
653226.3422284551797209.94512185653230.3422284551797209.94512185
653234.3422284551797209.94512185653238.3422284551797209.94512185
653242.3422284551797209.94512185653246.3422284551797209.94512185
653250.3422284551797209.94512185653254.3422284551797209.94512185
653258.3422284551797209.94512185653262.3422284551797209.94512185
653266.3422284551797209.94512185653270.3422284551797209.94512185
653274.3422284551797209.94512185653278.3422284551797209.94512185
653282.3422284551797209.94512185653286.3422284551797209.94512185
653290.3422284551797209.94512185653294.3422284551797209.94512185
653298.3422284551797209.94512185653302.3422284551797209.94512185
653306.3422284551797209.94512185653310.3422284551797209.94512185
653314.3422284551797209.94512185653318.3422284551797209.94512185
653322.3422284551797209.94512185653326.3422284551797209.94512185
653330.3422284551797209.94512185653334.3422284551797209.94512185
653338.3422284551797209.94512185653342.3422284551797209.94512185
653346.3422284551797209.94512185653350.3422284551797209.94512185
653354.3422284551797209.94512185653358.3422284551797209.94512185
653362.3422284551797209.94512185653366.3422284551797209.94512185
653370.3422284551797209.94512185653374.3422284551797209.94512185
653378.3422284551797209.94512185653382.3422284551797209.94512185
653386.3422284551797209.94512185653390.3422284551797209.94512185
653394.3422284551797209.94512185653398.3422284551797209.94512185
653402.3422284551797209.94512185653406.3422284551797209.94512185
653410.3422284551797209.94512185653414.3422284551797209.94512185
653418.3422284551797209.94512185653422.3422284551797209.94512185
653426.3422284551797209.94512185653430.3422284551797209.94512185
653434.3422284551797209.94512185653438.3422284551797209.94512185
653442.3422284551797209.94512185653446.3422284551797209.94512185
653450.3422284551797209.94512185653454.3422284551797209.94512185
653458.3422284551797209.94512185653462.3422284551797209.94512185
653466.3422284551797209.94512185653470.3422284551797209.94512185
653474.3422284551797209.94512185653478.3422284551797209.94512185
653482.3422284551797209.94512185653486.3422284551797209.94512185
653490.3422284551797209.94512185653494.3422284551797209.94512185
653498.3422284551797209.94512185653202.3422284551797205.94512185
653206.3422284551797205.94512185653210.3422284551797205.94512185
653214.3422284551797205.94512185653218.3422284551797205.94512185
653222.3422284551797205.94512185653226.3422284551797205.94512185
653230.3422284551797205.94512185653234.3422284551797205.94512185
653238.3422284551797205.94512185653242.3422284551797205.94512185
653246.3422284551797205.94512185653250.3422284551797205.94512185
653254.3422284551797205.94512185653258.3422284551797205.94512185
653262.3422284551797205.94512185653266.3422284551797205.94512185
653270.3422284551797205.94512185653274.3422284551797205.94512185
653278.3422284551797205.94512185653282.3422284551797205.94512185
653286.3422284551797205.94512185653290.3422284551797205.94512185
653294.3422284551797205.94512185653298.3422284551797205.94512185
653302.3422284551797205.94512185653306.3422284551797205.94512185
653310.3422284551797205.94512185653314.3422284551797205.94512185
653318.3422284551797205.94512185653322.3422284551797205.94512185
653326.3422284551797205.94512185653330.3422284551797205.94512185
653334.3422284551797205.94512185653338.3422284551797205.94512185
653342.3422284551797205.94512185653346.3422284551797205.94512185
653350.3422284551797205.94512185653354.3422284551797205.94512185
653358.3422284551797205.94512185653362.3422284551797205.94512185
653366.3422284551797205.94512185653370.3422284551797205.94512185
653374.3422284551797205.94512185653378.3422284551797205.94512185
653382.3422284551797205.94512185653386.3422284551797205.94512185
653390.3422284551797205.94512185653394.3422284551797205.94512185
653398.3422284551797205.94512185653402.3422284551797205.94512185
653406.3422284551797205.94512185653410.3422284551797205.94512185
653414.3422284551797205.94512185653418.3422284551797205.94512185
653422.3422284551797205.94512185653426.3422284551797205.94512185
653430.3422284551797205.94512185653434.3422284551797205.94512185
653438.3422284551797205.94512185653442.3422284551797205.94512185
653446.3422284551797205.94512185653450.3422284551797205.94512185
653454.3422284551797205.94512185653458.3422284551797205.94512185
653462.3422284551797205.94512185653466.3422284551797205.94512185
653470.3422284551797205.94512185653474.3422284551797205.94512185
653478.3422284551797205.94512185653482.3422284551797205.94512185
653486.3422284551797205.94512185653490.3422284551797205.94512185
653494.3422284551797205.94512185653498.3422284551797205.94512185
653202.3422284551797193.94512185653206.3422284551797193.94512185
653210.3422284551797193.94512185653214.3422284551797193.94512185
653218.3422284551797193.94512185653222.3422284551797193.94512185
653226.3422284551797193.94512185653230.3422284551797193.94512185
653234.3422284551797193.94512185653238.3422284551797193.94512185
653242.3422284551797193.94512185653246.3422284551797193.94512185
653250.3422284551797193.94512185653254.3422284551797193.94512185
653258.3422284551797193.94512185653262.3422284551797193.94512185
653266.3422284551797193.94512185653270.3422284551797193.94512185
653274.3422284551797193.94512185653278.3422284551797193.94512185
653282.3422284551797193.94512185653286.3422284551797193.94512185
653290.3422284551797193.94512185653294.3422284551797193.94512185
653298.3422284551797193.94512185653302.3422284551797193.94512185
653306.3422284551797193.94512185653310.3422284551797193.94512185
653314.3422284551797193.94512185653318.3422284551797193.94512185
653322.3422284551797193.94512185653326.3422284551797193.94512185
653330.3422284551797193.94512185653334.3422284551797193.94512185
653338.3422284551797193.94512185653342.3422284551797193.94512185
653346.3422284551797193.94512185653350.3422284551797193.94512185
653354.3422284551797193.94512185653358.3422284551797193.94512185
653362.3422284551797193.94512185653366.3422284551797193.94512185
653370.3422284551797193.94512185653374.3422284551797193.94512185
653378.3422284551797193.94512185653382.3422284551797193.94512185
653386.3422284551797193.94512185653390.3422284551797193.94512185
653394.3422284551797193.94512185653398.3422284551797193.94512185
653402.3422284551797193.94512185653406.3422284551797193.94512185
653410.3422284551797193.94512185653414.3422284551797193.94512185
653418.3422284551797193.94512185653422.3422284551797193.94512185
653426.3422284551797193.94512185653430.3422284551797193.94512185
653434.3422284551797193.94512185653438.3422284551797193.94512185
653442.3422284551797193.94512185653446.3422284551797193.94512185
653450.3422284551797193.94512185653454.3422284551797193.94512185
653458.3422284551797193.94512185653462.3422284551797193.94512185
653466.3422284551797193.94512185653470.3422284551797193.94512185
653474.3422284551797193.94512185653478.3422284551797193.94512185
653482.3422284551797193.94512185653486.3422284551797193.94512185
653490.3422284551797193.94512185653494.3422284551797193.94512185
653498.3422284551797193.94512185653202.3422284551797189.94512185
653206.3422284551797189.94512185653210.3422284551797189.94512185
653214.3422284551797189.94512185653218.3422284551797189.94512185
653222.3422284551797189.94512185653226.3422284551797189.94512185
653230.3422284551797189.94512185653234.3422284551797189.94512185
653238.3422284551797189.94512185653242.3422284551797189.94512185
653246.3422284551797189.94512185653250.3422284551797189.94512185
653254.3422284551797189.94512185653258.3422284551797189.94512185
653262.3422284551797189.94512185653266.3422284551797189.94512185
653270.3422284551797189.94512185653274.3422284551797189.94512185
653278.3422284551797189.94512185653282.3422284551797189.94512185
653286.3422284551797189.94512185653290.3422284551797189.94512185
653294.3422284551797189.94512185653298.3422284551797189.94512185
653302.3422284551797189.94512185653306.3422284551797189.94512185
653310.3422284551797189.94512185653314.3422284551797189.94512185
653318.3422284551797189.94512185653322.3422284551797189.94512185
653326.3422284551797189.94512185653330.3422284551797189.94512185
653334.3422284551797189.94512185653338.3422284551797189.94512185
653342.3422284551797189.94512185653346.3422284551797189.94512185
653350.3422284551797189.94512185653354.3422284551797189.94512185
653358.3422284551797189.94512185653362.3422284551797189.94512185
653366.3422284551797189.94512185653370.3422284551797189.94512185
653374.3422284551797189.94512185653378.3422284551797189.94512185
653382.3422284551797189.94512185653386.3422284551797189.94512185
653390.3422284551797189.94512185653394.3422284551797189.94512185
653398.3422284551797189.94512185653402.3422284551797189.94512185
653406.3422284551797189.94512185653410.3422284551797189.94512185
653414.3422284551797189.94512185653418.3422284551797189.94512185
653422.3422284551797189.94512185653426.3422284551797189.94512185
653430.3422284551797189.94512185653434.3422284551797189.94512185
653438.3422284551797189.94512185653442.3422284551797189.94512185
653446.3422284551797189.94512185653450.3422284551797189.94512185
653454.3422284551797189.94512185653458.3422284551797189.94512185
653462.3422284551797189.94512185653466.3422284551797189.94512185
653470.3422284551797189.94512185653474.3422284551797189.94512185
653478.3422284551797189.94512185653482.3422284551797189.94512185
653486.3422284551797189.94512185653490.3422284551797189.94512185
653494.3422284551797189.94512185653498.3422284551797189.94512185
653202.3422284551797185.94512185653206.3422284551797185.94512185
653210.3422284551797185.94512185653214.3422284551797185.94512185
653218.3422284551797185.94512185653222.3422284551797185.94512185
653226.3422284551797185.94512185653230.3422284551797185.94512185
653234.3422284551797185.94512185653238.3422284551797185.94512185
653242.3422284551797185.94512185653246.3422284551797185.94512185
653250.3422284551797185.94512185653254.3422284551797185.94512185
653258.3422284551797185.94512185653262.3422284551797185.94512185
653266.3422284551797185.94512185653270.3422284551797185.94512185
653274.3422284551797185.94512185653278.3422284551797185.94512185
653282.3422284551797185.94512185653286.3422284551797185.94512185
653290.3422284551797185.94512185653294.3422284551797185.94512185
653298.3422284551797185.94512185653302.3422284551797185.94512185
653306.3422284551797185.94512185653310.3422284551797185.94512185
653314.3422284551797185.94512185653318.3422284551797185.94512185
653322.3422284551797185.94512185653326.3422284551797185.94512185
653330.3422284551797185.94512185653334.3422284551797185.94512185
653338.3422284551797185.94512185653342.3422284551797185.94512185
653346.3422284551797185.94512185653350.3422284551797185.94512185
653354.3422284551797185.94512185653358.3422284551797185.94512185
653362.3422284551797185.94512185653366.3422284551797185.94512185
653370.3422284551797185.94512185653374.3422284551797185.94512185
653378.3422284551797185.94512185653382.3422284551797185.94512185
653386.3422284551797185.94512185653390.3422284551797185.94512185
653394.3422284551797185.94512185653398.3422284551797185.94512185
653402.3422284551797185.94512185653406.3422284551797185.94512185
653410.3422284551797185.94512185653414.3422284551797185.94512185
653418.3422284551797185.94512185653422.3422284551797185.94512185
653426.3422284551797185.94512185653430.3422284551797185.94512185
653434.3422284551797185.94512185653438.3422284551797185.94512185
653442.3422284551797185.94512185653446.3422284551797185.94512185
653450.3422284551797185.94512185653454.3422284551797185.94512185
653458.3422284551797185.94512185653462.3422284551797185.94512185
653466.3422284551797185.94512185653470.3422284551797185.94512185
653474.3422284551797185.94512185653478.3422284551797185.94512185
653482.3422284551797185.94512185653486.3422284551797185.94512185
653490.3422284551797185.94512185653494.3422284551797185.94512185
653498.3422284551797185.94512185653202.3422284551797181.94512185
653206.3422284551797181.94512185653210.3422284551797181.94512185
653214.3422284551797181.94512185653218.3422284551797181.94512185
653222.3422284551797181.94512185653226.3422284551797181.94512185
653230.3422284551797181.94512185653234.3422284551797181.94512185
653238.3422284551797181.94512185653242.3422284551797181.94512185
653246.3422284551797181.94512185653250.3422284551797181.94512185
653254.3422284551797181.94512185653258.3422284551797181.94512185
653262.3422284551797181.94512185653266.3422284551797181.94512185
653270.3422284551797181.94512185653274.3422284551797181.94512185
653278.3422284551797181.94512185653282.3422284551797181.94512185
653286.3422284551797181.94512185653290.3422284551797181.94512185
653294.3422284551797181.94512185653298.3422284551797181.94512185
653302.3422284551797181.94512185653306.3422284551797181.94512185
653310.3422284551797181.94512185653314.3422284551797181.94512185
653318.3422284551797181.94512185653322.3422284551797181.94512185
653326.3422284551797181.94512185653330.3422284551797181.94512185
653334.3422284551797181.94512185653338.3422284551797181.94512185
653342.3422284551797181.94512185653346.3422284551797181.94512185
653350.3422284551797181.94512185653354.3422284551797181.94512185
653358.3422284551797181.94512185653362.3422284551797181.94512185
653366.3422284551797181.94512185653370.3422284551797181.94512185
653374.3422284551797181.94512185653378.3422284551797181.94512185
653382.3422284551797181.94512185653386.3422284551797181.94512185
653390.3422284551797181.94512185653394.3422284551797181.94512185
653398.3422284551797181.94512185653402.3422284551797181.94512185
653406.3422284551797181.94512185653410.3422284551797181.94512185
653414.3422284551797181.94512185653418.3422284551797181.94512185
653422.3422284551797181.94512185653426.3422284551797181.94512185
653430.3422284551797181.94512185653434.3422284551797181.94512185
653438.3422284551797181.94512185653442.3422284551797181.94512185
653446.3422284551797181.94512185653450.3422284551797181.94512185
653454.3422284551797181.94512185653458.3422284551797181.94512185
653462.3422284551797181.94512185653466.3422284551797181.94512185
653470.3422284551797181.94512185653474.3422284551797181.94512185
653478.3422284551797181.94512185653482.3422284551797181.94512185
653486.3422284551797181.94512185653490.3422284551797181.94512185
653494.3422284551797181.94512185653498.3422284551797181.94512185
653202.3422284551797177.94512185653206.3422284551797177.94512185
653210.3422284551797177.94512185653214.3422284551797177.94512185
653218.3422284551797177.94512185653222.3422284551797177.94512185
653226.3422284551797177.94512185653230.3422284551797177.94512185
653234.3422284551797177.94512185653238.3422284551797177.94512185
653242.3422284551797177.94512185653246.3422284551797177.94512185
653250.3422284551797177.94512185653254.3422284551797177.94512185
653258.3422284551797177.94512185653262.3422284551797177.94512185
653266.3422284551797177.94512185653270.3422284551797177.94512185
653274.3422284551797177.94512185653278.3422284551797177.94512185
653282.3422284551797177.94512185653286.3422284551797177.94512185
653290.3422284551797177.94512185653294.3422284551797177.94512185
653298.3422284551797177.94512185653302.3422284551797177.94512185
653306.3422284551797177.94512185653310.3422284551797177.94512185
653314.3422284551797177.94512185653318.3422284551797177.94512185
653322.3422284551797177.94512185653326.3422284551797177.94512185
653330.3422284551797177.94512185653334.3422284551797177.94512185
653338.3422284551797177.94512185653342.3422284551797177.94512185
653346.3422284551797177.94512185653350.3422284551797177.94512185
653354.3422284551797177.94512185653358.3422284551797177.94512185
653362.3422284551797177.94512185653366.3422284551797177.94512185
653370.3422284551797177.94512185653374.3422284551797177.94512185
653378.3422284551797177.94512185653382.3422284551797177.94512185
653386.3422284551797177.94512185653390.3422284551797177.94512185
653394.3422284551797177.94512185653398.3422284551797177.94512185
653402.3422284551797177.94512185653406.3422284551797177.94512185
653410.3422284551797177.94512185653414.3422284551797177.94512185
653418.3422284551797177.94512185653422.3422284551797177.94512185
653426.3422284551797177.94512185653430.3422284551797177.94512185
653434.3422284551797177.94512185653438.3422284551797177.94512185
653442.3422284551797177.94512185653446.3422284551797177.94512185
653450.3422284551797177.94512185653454.3422284551797177.94512185
653458.3422284551797177.94512185653462.3422284551797177.94512185
653466.3422284551797177.94512185653470.3422284551797177.94512185
653474.3422284551797177.94512185653478.3422284551797177.94512185
653482.3422284551797177.94512185653486.3422284551797177.94512185
653490.3422284551797177.94512185653494.3422284551797177.94512185
653498.3422284551797177.94512185653202.3422284551797173.94512185
653206.3422284551797173.94512185653210.3422284551797173.94512185
653214.3422284551797173.94512185653218.3422284551797173.94512185
653222.3422284551797173.94512185653226.3422284551797173.94512185
653230.3422284551797173.94512185653234.3422284551797173.94512185
653238.3422284551797173.94512185653242.3422284551797173.94512185
653246.3422284551797173.94512185653250.3422284551797173.94512185
653254.3422284551797173.94512185653258.3422284551797173.94512185
653262.3422284551797173.94512185653266.3422284551797173.94512185
653270.3422284551797173.94512185653274.3422284551797173.94512185
653278.3422284551797173.94512185653282.3422284551797173.94512185
653286.3422284551797173.94512185653290.3422284551797173.94512185
653294.3422284551797173.94512185653298.3422284551797173.94512185
653302.3422284551797173.94512185653306.3422284551797173.94512185
653310.3422284551797173.94512185653314.3422284551797173.94512185
653318.3422284551797173.94512185653322.3422284551797173.94512185
653326.3422284551797173.94512185653330.3422284551797173.94512185
653334.3422284551797173.94512185653338.3422284551797173.94512185
653342.3422284551797173.94512185653346.3422284551797173.94512185
653350.3422284551797173.94512185653354.3422284551797173.94512185
653358.3422284551797173.94512185653362.3422284551797173.94512185
653366.3422284551797173.94512185653370.3422284551797173.94512185
653374.3422284551797173.94512185653378.3422284551797173.94512185
653382.3422284551797173.94512185653386.3422284551797173.94512185
653390.3422284551797173.94512185653394.3422284551797173.94512185
653398.3422284551797173.94512185653402.3422284551797173.94512185
653406.3422284551797173.94512185653410.3422284551797173.94512185
653414.3422284551797173.94512185653418.3422284551797173.94512185
653422.3422284551797173.94512185653426.3422284551797173.94512185
653430.3422284551797173.94512185653434.3422284551797173.94512185
653438.3422284551797173.94512185653442.3422284551797173.94512185
653446.3422284551797173.94512185653450.3422284551797173.94512185
653454.3422284551797173.94512185653458.3422284551797173.94512185
653462.3422284551797173.94512185653466.3422284551797173.94512185
653470.3422284551797173.94512185653474.3422284551797173.94512185
653478.3422284551797173.94512185653482.3422284551797173.94512185
653486.3422284551797173.94512185653490.3422284551797173.94512185
653494.3422284551797173.94512185653498.3422284551797173.94512185
653202.3422284551797169.94512185653206.3422284551797169.94512185
653210.3422284551797169.94512185653214.3422284551797169.94512185
653218.3422284551797169.94512185653222.3422284551797169.94512185
653226.3422284551797169.94512185653230.3422284551797169.94512185
653234.3422284551797169.94512185653238.3422284551797169.94512185
653242.3422284551797169.94512185653246.3422284551797169.94512185
653250.3422284551797169.94512185653254.3422284551797169.94512185
653258.3422284551797169.94512185653262.3422284551797169.94512185
653266.3422284551797169.94512185653270.3422284551797169.94512185
653274.3422284551797169.94512185653278.3422284551797169.94512185
653282.3422284551797169.94512185653286.3422284551797169.94512185
653290.3422284551797169.94512185653294.3422284551797169.94512185
653298.3422284551797169.94512185653302.3422284551797169.94512185
653306.3422284551797169.94512185653310.3422284551797169.94512185
653314.3422284551797169.94512185653318.3422284551797169.94512185
653322.3422284551797169.94512185653326.3422284551797169.94512185
653330.3422284551797169.94512185653334.3422284551797169.94512185
653338.3422284551797169.94512185653342.3422284551797169.94512185
653346.3422284551797169.94512185653350.3422284551797169.94512185
653354.3422284551797169.94512185653358.3422284551797169.94512185
653362.3422284551797169.94512185653366.3422284551797169.94512185
653370.3422284551797169.94512185653374.3422284551797169.94512185
653378.3422284551797169.94512185653382.3422284551797169.94512185
653386.3422284551797169.94512185653390.3422284551797169.94512185
653394.3422284551797169.94512185653398.3422284551797169.94512185
653402.3422284551797169.94512185653406.3422284551797169.94512185
653410.3422284551797169.94512185653414.3422284551797169.94512185
653418.3422284551797169.94512185653422.3422284551797169.94512185
653426.3422284551797169.94512185653430.3422284551797169.94512185
653434.3422284551797169.94512185653438.3422284551797169.94512185
653442.3422284551797169.94512185653446.3422284551797169.94512185
653450.3422284551797169.94512185653454.3422284551797169.94512185
653458.3422284551797169.94512185653462.3422284551797169.94512185
653466.3422284551797169.94512185653470.3422284551797169.94512185
653474.3422284551797169.94512185653478.3422284551797169.94512185
653482.3422284551797169.94512185653486.3422284551797169.94512185
653490.3422284551797169.94512185653494.3422284551797169.94512185
653498.3422284551797169.94512185653202.3422284551797165.94512185
653206.3422284551797165.94512185653210.3422284551797165.94512185
653214.3422284551797165.94512185653218.3422284551797165.94512185
653222.3422284551797165.94512185653226.3422284551797165.94512185
653230.3422284551797165.94512185653234.3422284551797165.94512185
653238.3422284551797165.94512185653242.3422284551797165.94512185
653246.3422284551797165.94512185653250.3422284551797165.94512185
653254.3422284551797165.94512185653258.3422284551797165.94512185
653262.3422284551797165.94512185653266.3422284551797165.94512185
653270.3422284551797165.94512185653274.3422284551797165.94512185
653278.3422284551797165.94512185653282.3422284551797165.94512185
653286.3422284551797165.94512185653290.3422284551797165.94512185
653294.3422284551797165.94512185653298.3422284551797165.94512185
653302.3422284551797165.94512185653306.3422284551797165.94512185
653310.3422284551797165.94512185653314.3422284551797165.94512185
653318.3422284551797165.94512185653322.3422284551797165.94512185
653326.3422284551797165.94512185653330.3422284551797165.94512185
653334.3422284551797165.94512185653338.3422284551797165.94512185
653342.3422284551797165.94512185653346.3422284551797165.94512185
653350.3422284551797165.94512185653354.3422284551797165.94512185
653358.3422284551797165.94512185653362.3422284551797165.94512185
653366.3422284551797165.94512185653370.3422284551797165.94512185
653374.3422284551797165.94512185653378.3422284551797165.94512185
653382.3422284551797165.94512185653386.3422284551797165.94512185
653390.3422284551797165.94512185653394.3422284551797165.94512185
653398.3422284551797165.94512185653402.3422284551797165.94512185
653406.3422284551797165.94512185653410.3422284551797165.94512185
653414.3422284551797165.94512185653418.3422284551797165.94512185
653422.3422284551797165.94512185653426.3422284551797165.94512185
653430.3422284551797165.94512185653434.3422284551797165.94512185
653438.3422284551797165.94512185653442.3422284551797165.94512185
653446.3422284551797165.94512185653450.3422284551797165.94512185
653454.3422284551797165.94512185653458.3422284551797165.94512185
653462.3422284551797165.94512185653466.3422284551797165.94512185
653470.3422284551797165.94512185653474.3422284551797165.94512185
653478.3422284551797165.94512185653482.3422284551797165.94512185
653486.3422284551797165.94512185653490.3422284551797165.94512185
653494.3422284551797165.94512185653498.3422284551797165.94512185
653202.3422284551797161.94512185653206.3422284551797161.94512185
653210.3422284551797161.94512185653214.3422284551797161.94512185