Geom Title=Geom_1
Program Version=6.00
Viewing Rectangle= 653048.310820479 , 654032.565299973 , 1797525.51623607 , 1796624.09505435 

Storage Area=Perimeter 1     ,653492.0330669,1797082.7381492
Storage Area Surface Line= 5 
653792.9245828681797484.54254599                
653987.8264599961796824.53391663                
653128.4863653891796665.06874443                
653093.0496604561797444.67625294                
653792.9245828681797484.54254599                
Storage Area Type= 1 
Storage Area Area=
Storage Area Min Elev=
Storage Area Is2D=-1
Storage Area Point Generation Data=,,100,100
Storage Area 2D Points= 0 
Storage Area 2D PointsPerimeterTime=04oct2022 20:58:54
Storage Area Mannings=0.06
2D Cell Volume Filter Tolerance=0.003
2D Cell Minimum Area Fraction=0.01
2D Face Profile Filter Tolerance=0.003
2D Face Area Elevation Profile Filter Tolerance=0.003
2D Face Area Elevation Conveyance Ratio=0.02
2D Face Area Laminar Depth=0.06

LCMann Time=déc/30/1899 00:00:00
LCMann Region Time=déc/30/1899 00:00:00
LCMann Table=0
Chan Stop Cuts=-1 



Use User Specified Reach Order=0
GIS Ratio Cuts To Invert=-1
GIS Limit At Bridges=0
Composite Channel Slope=5
